/*---------------------------------------------------------------------------*\
| =========                 |                                                 |
| \\      /  F ield         | OpenFOAM: The Open Source CFD Toolbox           |
|  \\    /   O peration     | Version:  2.3.0                                 |
|   \\  /    A nd           | Web:      www.OpenFOAM.org                      |
|    \\/     M anipulation  |                                                 |
\*---------------------------------------------------------------------------*/
Build  : 2.3.0-f5222ca19ce6
Exec   : checkMesh
Date   : May 09 2014
Time   : 13:11:35
Host   : "Alfonsos-MacBook-Pro.local"
PID    : 70176
Case   : /Users/fonso/C++/GAero/GAero/OF/tempCas0700wC2
nProcs : 1
sigFpe : Enabling floating point exception trapping (FOAM_SIGFPE).
fileModificationChecking : Monitoring run-time modified files using timeStampMaster
allowSystemOperations : Disallowing user-supplied system call operations

// * * * * * * * * * * * * * * * * * * * * * * * * * * * * * * * * * * * * * //
Create time

Create polyMesh for time = 0

Time = 0

Mesh stats
    points:           57800
    internal points:  0
    faces:            114556
    internal faces:   56756
    cells:            28552
    faces per cell:   6
    boundary patches: 5
    point zones:      0
    face zones:       0
    cell zones:       0

Overall number of cells of each type:
    hexahedra:     28552
    prisms:        0
    wedges:        0
    pyramids:      0
    tet wedges:    0
    tetrahedra:    0
    polyhedra:     0

Checking topology...
    Boundary definition OK.
    Cell to face addressing OK.
    Point usage OK.
    Upper triangular ordering OK.
    Face vertices OK.
    Number of regions: 1 (OK).

Checking patch topology for multiply connected surfaces...
    Patch               Faces    Points   Surface topology                  
    PROFILE             186      372      ok (non-closed singly connected)  
    INLET               344      690      ok (non-closed singly connected)  
    OUTLET              166      334      ok (non-closed singly connected)  
    EMPTY0              28552    28900    ok (non-closed singly connected)  
    EMPTY1              28552    28900    ok (non-closed singly connected)  

Checking geometry...
    Overall domain bounding box (-28.9963 -1 -30.0081) (40 0 30.0081)
    Mesh (non-empty, non-wedge) directions (1 0 1)
    Mesh (non-empty) directions (1 0 1)
    All edges aligned with or perpendicular to non-empty directions.
    Boundary openness (-4.58786e-18 -2.7089e-15 9.19368e-19) OK.
    Max cell openness = 4.17652e-16 OK.
    Max aspect ratio = 65.5989 OK.
    Minimum face area = 5.57784e-07. Maximum face area = 1.07029.  Face area magnitudes OK.
    Min volume = 5.57784e-07. Max volume = 0.781972.  Total volume = 3747.23.  Cell volumes OK.
    Mesh non-orthogonality Max: 83.2961 average: 18.7757
   *Number of severely non-orthogonal (> 70 degrees) faces: 525.
    Non-orthogonality check OK.
  <<Writing 525 non-orthogonal faces to set nonOrthoFaces
    Face pyramids OK.
 ***Max skewness = 42.2084, 5 highly skew faces detected which may impair the quality of the results
  <<Writing 5 skew faces to set skewFaces
    Coupled point location match (average 0) OK.

Failed 1 mesh checks.

End

