/*---------------------------------------------------------------------------*\
| =========                 |                                                 |
| \\      /  F ield         | OpenFOAM: The Open Source CFD Toolbox           |
|  \\    /   O peration     | Version:  2.3.0                                 |
|   \\  /    A nd           | Web:      www.OpenFOAM.org                      |
|    \\/     M anipulation  |                                                 |
\*---------------------------------------------------------------------------*/
Build  : 2.3.0-f5222ca19ce6
Exec   : decomposePar
Date   : May 14 2014
Time   : 13:12:19
Host   : "Alfonsos-MacBook-Pro.local"
PID    : 16359
Case   : /Users/fonso/C++/GAero/GAero/OF/NACABCN
nProcs : 1
sigFpe : Enabling floating point exception trapping (FOAM_SIGFPE).
fileModificationChecking : Monitoring run-time modified files using timeStampMaster
allowSystemOperations : Disallowing user-supplied system call operations

// * * * * * * * * * * * * * * * * * * * * * * * * * * * * * * * * * * * * * //
Create time



Decomposing mesh region0

Create mesh

Calculating distribution of cells
Selecting decompositionMethod scotch

Finished decomposition in 0.05 s

Calculating original mesh data

Distributing cells to processors

Distributing faces to processors

Distributing points to processors

Constructing processor meshes

Processor 0
    Number of cells = 14415
    Number of faces shared with processor 1 = 192
    Number of processor patches = 1
    Number of processor faces = 192
    Number of boundary faces = 29198

Processor 1
    Number of cells = 14137
    Number of faces shared with processor 0 = 192
    Number of processor patches = 1
    Number of processor faces = 192
    Number of boundary faces = 28602

Number of processor faces = 192
Max number of cells = 14415 (0.973662% above average 14276)
Max number of processor patches = 1 (0% above average 1)
Max number of faces between processors = 192 (0% above average 192)

Time = 0

Processor 0: field transfer
Processor 1: field transfer

End.

