/*---------------------------------------------------------------------------*\
| =========                 |                                                 |
| \\      /  F ield         | OpenFOAM: The Open Source CFD Toolbox           |
|  \\    /   O peration     | Version:  2.3.0                                 |
|   \\  /    A nd           | Web:      www.OpenFOAM.org                      |
|    \\/     M anipulation  |                                                 |
\*---------------------------------------------------------------------------*/
Build  : 2.3.0-f5222ca19ce6
Exec   : simpleFoam -parallel
Date   : May 23 2014
Time   : 21:42:06
Host   : "Alfonsos-MacBook-Pro.local"
PID    : 2749
Case   : /Users/fonso/C++/GAero/GAero/OF/tempCase2
nProcs : 2
Slaves : 1("Alfonsos-MacBook-Pro.local.2750")
Pstream initialized with:
    floatTransfer      : 0
    nProcsSimpleSum    : 0
    commsType          : nonBlocking
    polling iterations : 0
sigFpe : Enabling floating point exception trapping (FOAM_SIGFPE).
fileModificationChecking : Monitoring run-time modified files using timeStampMaster
allowSystemOperations : Disallowing user-supplied system call operations

// * * * * * * * * * * * * * * * * * * * * * * * * * * * * * * * * * * * * * //
Create time

Create mesh for time = 397

Reading field p

Reading field U

Reading/calculating face flux field phi

Selecting incompressible transport model Newtonian
Selecting RAS turbulence model kOmegaSST
kOmegaSSTCoeffs
{
    alphaK1         0.85034;
    alphaK2         1;
    alphaOmega1     0.5;
    alphaOmega2     0.85616;
    gamma1          0.5532;
    gamma2          0.4403;
    beta1           0.075;
    beta2           0.0828;
    betaStar        0.09;
    a1              0.31;
    b1              1;
    c1              10;
    F3              false;
}

No finite volume options present


SIMPLE: convergence criteria
    field p	 tolerance 1e-05
    field U	 tolerance 1e-05
    field nuTilda	 tolerance 1e-05


Starting time loop

forceCoeffs forceCoeffs:
    Not including porosity effects

Time = 398

smoothSolver:  Solving for Ux, Initial residual = 0.00147426, Final residual = 5.42986e-05, No Iterations 2
smoothSolver:  Solving for Uz, Initial residual = 0.000111818, Final residual = 3.86745e-06, No Iterations 1
GAMG:  Solving for p, Initial residual = 0.0773076, Final residual = 0.000746518, No Iterations 44
time step continuity errors : sum local = 3.72314e-05, global = 1.2675e-10, cumulative = 1.2675e-10
smoothSolver:  Solving for omega, Initial residual = 0.000259567, Final residual = 6.83393e-06, No Iterations 2
smoothSolver:  Solving for k, Initial residual = 0.00023263, Final residual = 1.09362e-05, No Iterations 2
ExecutionTime = 0.66 s  ClockTime = 1 s

forceCoeffs forceCoeffs output:
    Cm    = -0.144455
    Cd    = 0.212666
    Cl    = 0.187353
    Cl(f) = -0.0507786
    Cl(r) = 0.238131

Time = 399

smoothSolver:  Solving for Ux, Initial residual = 0.0340058, Final residual = 0.00300908, No Iterations 1
smoothSolver:  Solving for Uz, Initial residual = 0.0553857, Final residual = 0.00552609, No Iterations 1
GAMG:  Solving for p, Initial residual = 0.128506, Final residual = 0.00114459, No Iterations 17
time step continuity errors : sum local = 4.04887e-05, global = 9.16462e-08, cumulative = 9.1773e-08
smoothSolver:  Solving for omega, Initial residual = 0.000172511, Final residual = 6.12019e-06, No Iterations 2
smoothSolver:  Solving for k, Initial residual = 0.000233924, Final residual = 1.2041e-05, No Iterations 2
ExecutionTime = 0.79 s  ClockTime = 1 s

forceCoeffs forceCoeffs output:
    Cm    = -0.158015
    Cd    = 0.215223
    Cl    = 0.260164
    Cl(f) = -0.0279335
    Cl(r) = 0.288097

Time = 400

smoothSolver:  Solving for Ux, Initial residual = 0.0270914, Final residual = 0.00242603, No Iterations 1
smoothSolver:  Solving for Uz, Initial residual = 0.0368187, Final residual = 0.00130095, No Iterations 2
GAMG:  Solving for p, Initial residual = 0.258001, Final residual = 0.00250403, No Iterations 41
time step continuity errors : sum local = 4.79281e-05, global = 2.39397e-09, cumulative = 9.41669e-08
smoothSolver:  Solving for omega, Initial residual = 0.000124972, Final residual = 4.51998e-06, No Iterations 2
smoothSolver:  Solving for k, Initial residual = 0.000199852, Final residual = 1.07105e-05, No Iterations 2
ExecutionTime = 1.17 s  ClockTime = 1 s

forceCoeffs forceCoeffs output:
    Cm    = -0.0586117
    Cd    = 0.0542565
    Cl    = 0.433148
    Cl(f) = 0.157962
    Cl(r) = 0.275186

Time = 401

smoothSolver:  Solving for Ux, Initial residual = 0.0102959, Final residual = 0.00067687, No Iterations 1
smoothSolver:  Solving for Uz, Initial residual = 0.0118424, Final residual = 0.000914198, No Iterations 1
GAMG:  Solving for p, Initial residual = 0.0970376, Final residual = 0.000922742, No Iterations 40
time step continuity errors : sum local = 5.29512e-05, global = 1.26029e-09, cumulative = 9.54272e-08
smoothSolver:  Solving for omega, Initial residual = 0.000103608, Final residual = 3.81034e-06, No Iterations 2
smoothSolver:  Solving for k, Initial residual = 0.000164208, Final residual = 8.55589e-06, No Iterations 2
ExecutionTime = 1.42 s  ClockTime = 2 s

forceCoeffs forceCoeffs output:
    Cm    = 0.0388004
    Cd    = -0.0810945
    Cl    = 0.509279
    Cl(f) = 0.29344
    Cl(r) = 0.215839

Time = 402

smoothSolver:  Solving for Ux, Initial residual = 0.0161123, Final residual = 0.00122429, No Iterations 1
smoothSolver:  Solving for Uz, Initial residual = 0.0256741, Final residual = 0.00243271, No Iterations 1
GAMG:  Solving for p, Initial residual = 0.0759086, Final residual = 0.000731399, No Iterations 24
time step continuity errors : sum local = 6.31463e-05, global = 1.6811e-08, cumulative = 1.12238e-07
smoothSolver:  Solving for omega, Initial residual = 0.000102395, Final residual = 3.83567e-06, No Iterations 2
smoothSolver:  Solving for k, Initial residual = 0.000183354, Final residual = 8.51444e-06, No Iterations 2
ExecutionTime = 1.57 s  ClockTime = 2 s

forceCoeffs forceCoeffs output:
    Cm    = 0.065236
    Cd    = -0.103056
    Cl    = 0.437679
    Cl(f) = 0.284075
    Cl(r) = 0.153603

Time = 403

smoothSolver:  Solving for Ux, Initial residual = 0.0169968, Final residual = 0.00120242, No Iterations 1
smoothSolver:  Solving for Uz, Initial residual = 0.0303283, Final residual = 0.000939831, No Iterations 2
GAMG:  Solving for p, Initial residual = 0.0755316, Final residual = 0.000747161, No Iterations 26
time step continuity errors : sum local = 5.44312e-05, global = 6.89656e-08, cumulative = 1.81204e-07
smoothSolver:  Solving for omega, Initial residual = 9.17025e-05, Final residual = 3.58041e-06, No Iterations 2
smoothSolver:  Solving for k, Initial residual = 0.000175088, Final residual = 8.22269e-06, No Iterations 2
ExecutionTime = 1.74 s  ClockTime = 2 s

forceCoeffs forceCoeffs output:
    Cm    = 0.0176097
    Cd    = -0.0333899
    Cl    = 0.348948
    Cl(f) = 0.192084
    Cl(r) = 0.156864

Time = 404

smoothSolver:  Solving for Ux, Initial residual = 0.011983, Final residual = 0.000653801, No Iterations 1
smoothSolver:  Solving for Uz, Initial residual = 0.0174487, Final residual = 0.0012876, No Iterations 1
GAMG:  Solving for p, Initial residual = 0.114874, Final residual = 0.00112309, No Iterations 33
time step continuity errors : sum local = 5.74793e-05, global = 8.1477e-08, cumulative = 2.62681e-07
smoothSolver:  Solving for omega, Initial residual = 7.47348e-05, Final residual = 3.00433e-06, No Iterations 2
smoothSolver:  Solving for k, Initial residual = 0.000149115, Final residual = 7.49075e-06, No Iterations 2
ExecutionTime = 1.94 s  ClockTime = 2 s

forceCoeffs forceCoeffs output:
    Cm    = -0.0427837
    Cd    = 0.0410047
    Cl    = 0.3329
    Cl(f) = 0.123666
    Cl(r) = 0.209234

Time = 405

smoothSolver:  Solving for Ux, Initial residual = 0.0111415, Final residual = 0.000796426, No Iterations 1
smoothSolver:  Solving for Uz, Initial residual = 0.0198241, Final residual = 0.00188164, No Iterations 1
GAMG:  Solving for p, Initial residual = 0.141598, Final residual = 0.00132466, No Iterations 27
time step continuity errors : sum local = 5.76143e-05, global = 1.96222e-08, cumulative = 2.82303e-07
smoothSolver:  Solving for omega, Initial residual = 7.16174e-05, Final residual = 2.69431e-06, No Iterations 2
smoothSolver:  Solving for k, Initial residual = 0.000147916, Final residual = 7.3342e-06, No Iterations 2
ExecutionTime = 2.16 s  ClockTime = 3 s

forceCoeffs forceCoeffs output:
    Cm    = -0.0689746
    Cd    = 0.0671861
    Cl    = 0.38341
    Cl(f) = 0.12273
    Cl(r) = 0.260679

Time = 406

smoothSolver:  Solving for Ux, Initial residual = 0.0111011, Final residual = 0.000729728, No Iterations 1
smoothSolver:  Solving for Uz, Initial residual = 0.0204091, Final residual = 0.00194909, No Iterations 1
GAMG:  Solving for p, Initial residual = 0.113272, Final residual = 0.00109358, No Iterations 21
time step continuity errors : sum local = 5.29146e-05, global = -2.86841e-09, cumulative = 2.79435e-07
smoothSolver:  Solving for omega, Initial residual = 6.72569e-05, Final residual = 2.44821e-06, No Iterations 2
smoothSolver:  Solving for k, Initial residual = 0.000156064, Final residual = 7.74397e-06, No Iterations 2
ExecutionTime = 2.31 s  ClockTime = 3 s

forceCoeffs forceCoeffs output:
    Cm    = -0.0530231
    Cd    = 0.044784
    Cl    = 0.425425
    Cl(f) = 0.159689
    Cl(r) = 0.265736

Time = 407

smoothSolver:  Solving for Ux, Initial residual = 0.00982713, Final residual = 0.000577374, No Iterations 1
smoothSolver:  Solving for Uz, Initial residual = 0.01369, Final residual = 0.00105016, No Iterations 1
GAMG:  Solving for p, Initial residual = 0.103718, Final residual = 0.000983051, No Iterations 30
time step continuity errors : sum local = 5.30098e-05, global = 4.87459e-08, cumulative = 3.2818e-07
smoothSolver:  Solving for omega, Initial residual = 6.72992e-05, Final residual = 2.39653e-06, No Iterations 2
smoothSolver:  Solving for k, Initial residual = 0.000165511, Final residual = 8.31487e-06, No Iterations 2
ExecutionTime = 2.51 s  ClockTime = 3 s

forceCoeffs forceCoeffs output:
    Cm    = -0.0201109
    Cd    = 0.00677442
    Cl    = 0.41727
    Cl(f) = 0.188524
    Cl(r) = 0.228746

Time = 408

smoothSolver:  Solving for Ux, Initial residual = 0.0082001, Final residual = 0.000547345, No Iterations 1
smoothSolver:  Solving for Uz, Initial residual = 0.0144527, Final residual = 0.00137506, No Iterations 1
GAMG:  Solving for p, Initial residual = 0.107974, Final residual = 0.00102567, No Iterations 28
time step continuity errors : sum local = 5.45825e-05, global = 5.23171e-08, cumulative = 3.80497e-07
smoothSolver:  Solving for omega, Initial residual = 6.84806e-05, Final residual = 2.42991e-06, No Iterations 2
smoothSolver:  Solving for k, Initial residual = 0.000171805, Final residual = 8.62924e-06, No Iterations 2
ExecutionTime = 2.69 s  ClockTime = 3 s

forceCoeffs forceCoeffs output:
    Cm    = -0.000517626
    Cd    = -0.0144931
    Cl    = 0.384701
    Cl(f) = 0.191833
    Cl(r) = 0.192868

Time = 409

smoothSolver:  Solving for Ux, Initial residual = 0.00784853, Final residual = 0.00047046, No Iterations 1
smoothSolver:  Solving for Uz, Initial residual = 0.0157598, Final residual = 0.00154576, No Iterations 1
GAMG:  Solving for p, Initial residual = 0.107505, Final residual = 0.00100525, No Iterations 22
time step continuity errors : sum local = 4.99873e-05, global = -2.08725e-09, cumulative = 3.7841e-07
smoothSolver:  Solving for omega, Initial residual = 6.572e-05, Final residual = 2.41564e-06, No Iterations 2
smoothSolver:  Solving for k, Initial residual = 0.000169181, Final residual = 8.86264e-06, No Iterations 2
ExecutionTime = 2.85 s  ClockTime = 3 s

forceCoeffs forceCoeffs output:
    Cm    = -0.0048009
    Cd    = -0.00985332
    Cl    = 0.371747
    Cl(f) = 0.181073
    Cl(r) = 0.190674

Time = 410

smoothSolver:  Solving for Ux, Initial residual = 0.00786897, Final residual = 0.000429067, No Iterations 1
smoothSolver:  Solving for Uz, Initial residual = 0.013266, Final residual = 0.000999232, No Iterations 1
GAMG:  Solving for p, Initial residual = 0.107977, Final residual = 0.0010595, No Iterations 26
time step continuity errors : sum local = 5.24581e-05, global = -3.16229e-08, cumulative = 3.46787e-07
smoothSolver:  Solving for omega, Initial residual = 6.26828e-05, Final residual = 2.36511e-06, No Iterations 2
smoothSolver:  Solving for k, Initial residual = 0.000163671, Final residual = 9.12979e-06, No Iterations 2
ExecutionTime = 3.03 s  ClockTime = 4 s

forceCoeffs forceCoeffs output:
    Cm    = -0.0215693
    Cd    = 0.00784738
    Cl    = 0.387549
    Cl(f) = 0.172205
    Cl(r) = 0.215344

Time = 411

smoothSolver:  Solving for Ux, Initial residual = 0.00681182, Final residual = 0.000402172, No Iterations 1
smoothSolver:  Solving for Uz, Initial residual = 0.0120323, Final residual = 0.000796319, No Iterations 1
GAMG:  Solving for p, Initial residual = 0.100641, Final residual = 0.000975626, No Iterations 27
time step continuity errors : sum local = 5.16958e-05, global = 8.72885e-09, cumulative = 3.55516e-07
smoothSolver:  Solving for omega, Initial residual = 6.12713e-05, Final residual = 2.34758e-06, No Iterations 2
smoothSolver:  Solving for k, Initial residual = 0.000164698, Final residual = 9.48189e-06, No Iterations 2
ExecutionTime = 3.21 s  ClockTime = 4 s

forceCoeffs forceCoeffs output:
    Cm    = -0.0337306
    Cd    = 0.0207702
    Cl    = 0.407602
    Cl(f) = 0.17007
    Cl(r) = 0.237531

Time = 412

smoothSolver:  Solving for Ux, Initial residual = 0.00607055, Final residual = 0.000386456, No Iterations 1
smoothSolver:  Solving for Uz, Initial residual = 0.0109104, Final residual = 0.000909103, No Iterations 1
GAMG:  Solving for p, Initial residual = 0.0896534, Final residual = 0.000891067, No Iterations 24
time step continuity errors : sum local = 5.00283e-05, global = 4.57596e-10, cumulative = 3.55974e-07
smoothSolver:  Solving for omega, Initial residual = 5.98833e-05, Final residual = 2.33123e-06, No Iterations 2
smoothSolver:  Solving for k, Initial residual = 0.000166078, Final residual = 9.92362e-06, No Iterations 2
ExecutionTime = 3.38 s  ClockTime = 4 s

forceCoeffs forceCoeffs output:
    Cm    = -0.0340884
    Cd    = 0.0213627
    Cl    = 0.409757
    Cl(f) = 0.17079
    Cl(r) = 0.238967

Time = 413

smoothSolver:  Solving for Ux, Initial residual = 0.00617261, Final residual = 0.000356761, No Iterations 1
smoothSolver:  Solving for Uz, Initial residual = 0.00913527, Final residual = 0.000701882, No Iterations 1
GAMG:  Solving for p, Initial residual = 0.0901295, Final residual = 0.000883839, No Iterations 28
time step continuity errors : sum local = 4.97179e-05, global = 6.05976e-08, cumulative = 4.16571e-07
smoothSolver:  Solving for omega, Initial residual = 5.97892e-05, Final residual = 2.35702e-06, No Iterations 2
smoothSolver:  Solving for k, Initial residual = 0.000167918, Final residual = 1.03876e-05, No Iterations 2
ExecutionTime = 3.6 s  ClockTime = 5 s

forceCoeffs forceCoeffs output:
    Cm    = -0.0275072
    Cd    = 0.0144158
    Cl    = 0.397244
    Cl(f) = 0.171115
    Cl(r) = 0.226129

Time = 414

smoothSolver:  Solving for Ux, Initial residual = 0.00589327, Final residual = 0.000349196, No Iterations 1
smoothSolver:  Solving for Uz, Initial residual = 0.00915482, Final residual = 0.000703325, No Iterations 1
GAMG:  Solving for p, Initial residual = 0.0952698, Final residual = 0.000878329, No Iterations 28
time step continuity errors : sum local = 4.7074e-05, global = 2.23433e-08, cumulative = 4.38915e-07
smoothSolver:  Solving for omega, Initial residual = 5.90844e-05, Final residual = 2.34702e-06, No Iterations 2
smoothSolver:  Solving for k, Initial residual = 0.00016585, Final residual = 1.06031e-05, No Iterations 2
ExecutionTime = 3.79 s  ClockTime = 5 s

forceCoeffs forceCoeffs output:
    Cm    = -0.0223749
    Cd    = 0.00862554
    Cl    = 0.388247
    Cl(f) = 0.171749
    Cl(r) = 0.216499

Time = 415

smoothSolver:  Solving for Ux, Initial residual = 0.00544795, Final residual = 0.000335063, No Iterations 1
smoothSolver:  Solving for Uz, Initial residual = 0.00951761, Final residual = 0.000825656, No Iterations 1
GAMG:  Solving for p, Initial residual = 0.0956211, Final residual = 0.000950971, No Iterations 26
time step continuity errors : sum local = 4.80497e-05, global = 1.40785e-09, cumulative = 4.40323e-07
smoothSolver:  Solving for omega, Initial residual = 5.79528e-05, Final residual = 2.27164e-06, No Iterations 2
smoothSolver:  Solving for k, Initial residual = 0.000161927, Final residual = 1.06646e-05, No Iterations 2
ExecutionTime = 3.97 s  ClockTime = 5 s

forceCoeffs forceCoeffs output:
    Cm    = -0.022084
    Cd    = 0.00797484
    Cl    = 0.392338
    Cl(f) = 0.174085
    Cl(r) = 0.218253

Time = 416

smoothSolver:  Solving for Ux, Initial residual = 0.00566699, Final residual = 0.000329953, No Iterations 1
smoothSolver:  Solving for Uz, Initial residual = 0.00896462, Final residual = 0.000694494, No Iterations 1
GAMG:  Solving for p, Initial residual = 0.0955679, Final residual = 0.000942471, No Iterations 28
time step continuity errors : sum local = 4.70394e-05, global = -2.93194e-08, cumulative = 4.11003e-07
smoothSolver:  Solving for omega, Initial residual = 5.70338e-05, Final residual = 2.19687e-06, No Iterations 2
smoothSolver:  Solving for k, Initial residual = 0.000159706, Final residual = 1.0864e-05, No Iterations 2
ExecutionTime = 4.14 s  ClockTime = 5 s

forceCoeffs forceCoeffs output:
    Cm    = -0.0243376
    Cd    = 0.0104196
    Cl    = 0.402579
    Cl(f) = 0.176952
    Cl(r) = 0.225627

Time = 417

smoothSolver:  Solving for Ux, Initial residual = 0.00554903, Final residual = 0.000319724, No Iterations 1
smoothSolver:  Solving for Uz, Initial residual = 0.00831031, Final residual = 0.00050451, No Iterations 1
GAMG:  Solving for p, Initial residual = 0.0915962, Final residual = 0.0008714, No Iterations 32
time step continuity errors : sum local = 4.55179e-05, global = 2.29138e-07, cumulative = 6.40141e-07
smoothSolver:  Solving for omega, Initial residual = 5.60333e-05, Final residual = 2.15967e-06, No Iterations 2
smoothSolver:  Solving for k, Initial residual = 0.000159199, Final residual = 1.10833e-05, No Iterations 2
ExecutionTime = 4.34 s  ClockTime = 5 s

forceCoeffs forceCoeffs output:
    Cm    = -0.0257325
    Cd    = 0.0122049
    Cl    = 0.406916
    Cl(f) = 0.177726
    Cl(r) = 0.22919

Time = 418

smoothSolver:  Solving for Ux, Initial residual = 0.00512002, Final residual = 0.000301836, No Iterations 1
smoothSolver:  Solving for Uz, Initial residual = 0.00767537, Final residual = 0.000503422, No Iterations 1
GAMG:  Solving for p, Initial residual = 0.0837077, Final residual = 0.000779957, No Iterations 30
time step continuity errors : sum local = 4.30229e-05, global = 1.99658e-07, cumulative = 8.39799e-07
smoothSolver:  Solving for omega, Initial residual = 5.5703e-05, Final residual = 2.14532e-06, No Iterations 2
smoothSolver:  Solving for k, Initial residual = 0.000159208, Final residual = 1.12167e-05, No Iterations 2
ExecutionTime = 4.54 s  ClockTime = 6 s

forceCoeffs forceCoeffs output:
    Cm    = -0.025674
    Cd    = 0.0121158
    Cl    = 0.402537
    Cl(f) = 0.175595
    Cl(r) = 0.226943

Time = 419

smoothSolver:  Solving for Ux, Initial residual = 0.00494834, Final residual = 0.000290531, No Iterations 1
smoothSolver:  Solving for Uz, Initial residual = 0.00706142, Final residual = 0.000512726, No Iterations 1
GAMG:  Solving for p, Initial residual = 0.0808271, Final residual = 0.000795515, No Iterations 28
time step continuity errors : sum local = 4.50651e-05, global = 2.35431e-07, cumulative = 1.07523e-06
smoothSolver:  Solving for omega, Initial residual = 5.44155e-05, Final residual = 2.1288e-06, No Iterations 2
smoothSolver:  Solving for k, Initial residual = 0.000158885, Final residual = 1.12507e-05, No Iterations 2
ExecutionTime = 4.71 s  ClockTime = 6 s

forceCoeffs forceCoeffs output:
    Cm    = -0.0256827
    Cd    = 0.0115019
    Cl    = 0.396599
    Cl(f) = 0.172617
    Cl(r) = 0.223982

Time = 420

smoothSolver:  Solving for Ux, Initial residual = 0.00502271, Final residual = 0.000284458, No Iterations 1
smoothSolver:  Solving for Uz, Initial residual = 0.00701366, Final residual = 0.000508388, No Iterations 1
GAMG:  Solving for p, Initial residual = 0.0824781, Final residual = 0.000794539, No Iterations 33
time step continuity errors : sum local = 4.44458e-05, global = 5.56442e-07, cumulative = 1.63167e-06
smoothSolver:  Solving for omega, Initial residual = 5.33748e-05, Final residual = 2.09203e-06, No Iterations 2
smoothSolver:  Solving for k, Initial residual = 0.000158908, Final residual = 1.12516e-05, No Iterations 2
ExecutionTime = 4.92 s  ClockTime = 6 s

forceCoeffs forceCoeffs output:
    Cm    = -0.0266725
    Cd    = 0.0117474
    Cl    = 0.396464
    Cl(f) = 0.17156
    Cl(r) = 0.224905

Time = 421

smoothSolver:  Solving for Ux, Initial residual = 0.00492666, Final residual = 0.000276126, No Iterations 1
smoothSolver:  Solving for Uz, Initial residual = 0.00706347, Final residual = 0.000515128, No Iterations 1
GAMG:  Solving for p, Initial residual = 0.0817912, Final residual = 0.000786133, No Iterations 36
time step continuity errors : sum local = 4.2452e-05, global = -9.89099e-08, cumulative = 1.53276e-06
smoothSolver:  Solving for omega, Initial residual = 5.15973e-05, Final residual = 2.03053e-06, No Iterations 2
smoothSolver:  Solving for k, Initial residual = 0.000158369, Final residual = 1.11424e-05, No Iterations 2
ExecutionTime = 5.16 s  ClockTime = 6 s

forceCoeffs forceCoeffs output:
    Cm    = -0.0277498
    Cd    = 0.0126034
    Cl    = 0.401808
    Cl(f) = 0.173154
    Cl(r) = 0.228654

Time = 422

smoothSolver:  Solving for Ux, Initial residual = 0.0048138, Final residual = 0.00026881, No Iterations 1
smoothSolver:  Solving for Uz, Initial residual = 0.00680841, Final residual = 0.000488541, No Iterations 1
GAMG:  Solving for p, Initial residual = 0.0810675, Final residual = 0.000771522, No Iterations 32
time step continuity errors : sum local = 4.06857e-05, global = -1.0577e-07, cumulative = 1.42699e-06
smoothSolver:  Solving for omega, Initial residual = 5.00424e-05, Final residual = 1.95271e-06, No Iterations 2
smoothSolver:  Solving for k, Initial residual = 0.000158517, Final residual = 1.10502e-05, No Iterations 2
ExecutionTime = 5.37 s  ClockTime = 7 s

forceCoeffs forceCoeffs output:
    Cm    = -0.0275542
    Cd    = 0.0128544
    Cl    = 0.406489
    Cl(f) = 0.17569
    Cl(r) = 0.230799

Time = 423

smoothSolver:  Solving for Ux, Initial residual = 0.00484552, Final residual = 0.000275487, No Iterations 1
smoothSolver:  Solving for Uz, Initial residual = 0.00651269, Final residual = 0.000446821, No Iterations 1
GAMG:  Solving for p, Initial residual = 0.0816453, Final residual = 0.000760445, No Iterations 31
time step continuity errors : sum local = 4.04757e-05, global = 1.02688e-07, cumulative = 1.52968e-06
smoothSolver:  Solving for omega, Initial residual = 4.82035e-05, Final residual = 1.87389e-06, No Iterations 2
smoothSolver:  Solving for k, Initial residual = 0.000159587, Final residual = 1.10258e-05, No Iterations 2
ExecutionTime = 5.57 s  ClockTime = 7 s

forceCoeffs forceCoeffs output:
    Cm    = -0.0261471
    Cd    = 0.012043
    Cl    = 0.406263
    Cl(f) = 0.176984
    Cl(r) = 0.229278

Time = 424

smoothSolver:  Solving for Ux, Initial residual = 0.0047607, Final residual = 0.000267069, No Iterations 1
smoothSolver:  Solving for Uz, Initial residual = 0.00628305, Final residual = 0.000426747, No Iterations 1
GAMG:  Solving for p, Initial residual = 0.0783978, Final residual = 0.000771649, No Iterations 37
time step continuity errors : sum local = 4.22244e-05, global = -1.06438e-07, cumulative = 1.42324e-06
smoothSolver:  Solving for omega, Initial residual = 4.58875e-05, Final residual = 1.81905e-06, No Iterations 2
smoothSolver:  Solving for k, Initial residual = 0.000159853, Final residual = 1.10555e-05, No Iterations 2
ExecutionTime = 5.79 s  ClockTime = 7 s

forceCoeffs forceCoeffs output:
    Cm    = -0.0249751
    Cd    = 0.0109505
    Cl    = 0.402773
    Cl(f) = 0.176411
    Cl(r) = 0.226361

Time = 425

smoothSolver:  Solving for Ux, Initial residual = 0.00461196, Final residual = 0.00025476, No Iterations 1
smoothSolver:  Solving for Uz, Initial residual = 0.00611557, Final residual = 0.000431055, No Iterations 1
GAMG:  Solving for p, Initial residual = 0.0741863, Final residual = 0.000729349, No Iterations 39
time step continuity errors : sum local = 4.07665e-05, global = -9.28292e-08, cumulative = 1.33041e-06
smoothSolver:  Solving for omega, Initial residual = 4.45107e-05, Final residual = 1.78904e-06, No Iterations 2
smoothSolver:  Solving for k, Initial residual = 0.000160531, Final residual = 1.11506e-05, No Iterations 2
ExecutionTime = 6.01 s  ClockTime = 7 s

forceCoeffs forceCoeffs output:
    Cm    = -0.0252899
    Cd    = 0.0106349
    Cl    = 0.400783
    Cl(f) = 0.175102
    Cl(r) = 0.225682

Time = 426

smoothSolver:  Solving for Ux, Initial residual = 0.00458288, Final residual = 0.000255589, No Iterations 1
smoothSolver:  Solving for Uz, Initial residual = 0.00596975, Final residual = 0.00043251, No Iterations 1
GAMG:  Solving for p, Initial residual = 0.0733506, Final residual = 0.000705696, No Iterations 34
time step continuity errors : sum local = 3.95559e-05, global = 8.66585e-08, cumulative = 1.41707e-06
smoothSolver:  Solving for omega, Initial residual = 4.31112e-05, Final residual = 1.78093e-06, No Iterations 2
smoothSolver:  Solving for k, Initial residual = 0.000161845, Final residual = 1.13352e-05, No Iterations 2
ExecutionTime = 6.24 s  ClockTime = 8 s

forceCoeffs forceCoeffs output:
    Cm    = -0.0267899
    Cd    = 0.0112716
    Cl    = 0.402603
    Cl(f) = 0.174512
    Cl(r) = 0.228092

Time = 427

smoothSolver:  Solving for Ux, Initial residual = 0.00463172, Final residual = 0.000260037, No Iterations 1
smoothSolver:  Solving for Uz, Initial residual = 0.00588007, Final residual = 0.00042888, No Iterations 1
