/*---------------------------------------------------------------------------*\
| =========                 |                                                 |
| \\      /  F ield         | OpenFOAM: The Open Source CFD Toolbox           |
|  \\    /   O peration     | Version:  2.3.0                                 |
|   \\  /    A nd           | Web:      www.OpenFOAM.org                      |
|    \\/     M anipulation  |                                                 |
\*---------------------------------------------------------------------------*/
Build  : 2.3.0-f5222ca19ce6
Exec   : simpleFoam -parallel
Date   : May 05 2014
Time   : 14:24:02
Host   : "Alfonsos-MacBook-Pro.local"
PID    : 12757
Case   : /Users/fonso/C++/GAero/GAero/OF/tempCase
nProcs : 2
Slaves : 1("Alfonsos-MacBook-Pro.local.12758")
Pstream initialized with:
    floatTransfer      : 0
    nProcsSimpleSum    : 0
    commsType          : nonBlocking
    polling iterations : 0
sigFpe : Enabling floating point exception trapping (FOAM_SIGFPE).
fileModificationChecking : Monitoring run-time modified files using timeStampMaster
allowSystemOperations : Disallowing user-supplied system call operations

// * * * * * * * * * * * * * * * * * * * * * * * * * * * * * * * * * * * * * //
Create time

Create mesh for time = 0

Reading field p

Reading field U

Reading/calculating face flux field phi

Selecting incompressible transport model Newtonian
Selecting RAS turbulence model kOmegaSST
kOmegaSSTCoeffs
{
    alphaK1         0.85034;
    alphaK2         1;
    alphaOmega1     0.5;
    alphaOmega2     0.85616;
    gamma1          0.5532;
    gamma2          0.4403;
    beta1           0.075;
    beta2           0.0828;
    betaStar        0.09;
    a1              0.31;
    b1              1;
    c1              10;
    F3              false;
}

No finite volume options present


SIMPLE: convergence criteria
    field p	 tolerance 1e-05
    field U	 tolerance 1e-05
    field nuTilda	 tolerance 1e-05


Starting time loop

forceCoeffs forceCoeffs:
    Not including porosity effects

nearWallFields near: Sampling 1 fields
Time = 1

smoothSolver:  Solving for Ux, Initial residual = 0.0392027, Final residual = 0.00346531, No Iterations 1
smoothSolver:  Solving for Uz, Initial residual = 0.0765792, Final residual = 0.00392341, No Iterations 1
GAMG:  Solving for p, Initial residual = 1, Final residual = 0.00983857, No Iterations 26
time step continuity errors : sum local = 0.000318944, global = 1.36805e-07, cumulative = 1.36805e-07
smoothSolver:  Solving for omega, Initial residual = 0.0942525, Final residual = 0.00596104, No Iterations 2
smoothSolver:  Solving for k, Initial residual = 1, Final residual = 0.0354085, No Iterations 1
ExecutionTime = 0.43 s  ClockTime = 0 s

forceCoeffs forceCoeffs output:
    Cm    = 0.0309574
    Cd    = 0.13517
    Cl    = 0.132069
    Cl(f) = 0.096992
    Cl(r) = 0.0350773

nearWallFields near: Creating 1 fields
    created UNear to sample U

nearWallFields near output:
    Sampling fields to 1
Time = 2

smoothSolver:  Solving for Ux, Initial residual = 0.0231625, Final residual = 0.00142458, No Iterations 1
smoothSolver:  Solving for Uz, Initial residual = 0.039175, Final residual = 0.00196828, No Iterations 1
GAMG:  Solving for p, Initial residual = 0.114001, Final residual = 0.00104371, No Iterations 30
time step continuity errors : sum local = 0.000257466, global = 1.36834e-07, cumulative = 2.73639e-07
smoothSolver:  Solving for omega, Initial residual = 0.0120289, Final residual = 0.000755932, No Iterations 2
smoothSolver:  Solving for k, Initial residual = 0.192269, Final residual = 0.00972495, No Iterations 1
ExecutionTime = 0.61 s  ClockTime = 0 s

forceCoeffs forceCoeffs output:
    Cm    = 0.0757055
    Cd    = 0.192655
    Cl    = 0.0813363
    Cl(f) = 0.116374
    Cl(r) = -0.0350374

nearWallFields near output:
    Sampling fields to 2
Time = 3

smoothSolver:  Solving for Ux, Initial residual = 0.0253191, Final residual = 0.00180934, No Iterations 1
smoothSolver:  Solving for Uz, Initial residual = 0.0348885, Final residual = 0.00188761, No Iterations 1
GAMG:  Solving for p, Initial residual = 0.094667, Final residual = 0.000859717, No Iterations 18
time step continuity errors : sum local = 0.000273497, global = 1.2815e-07, cumulative = 4.01789e-07
smoothSolver:  Solving for omega, Initial residual = 0.00748008, Final residual = 0.000400239, No Iterations 2
smoothSolver:  Solving for k, Initial residual = 0.069571, Final residual = 0.00447694, No Iterations 1
ExecutionTime = 0.69 s  ClockTime = 0 s

forceCoeffs forceCoeffs output:
    Cm    = 0.101788
    Cd    = 0.0911178
    Cl    = -0.0806472
    Cl(f) = 0.0614641
    Cl(r) = -0.142111

nearWallFields near output:
    Sampling fields to 3
Time = 4

smoothSolver:  Solving for Ux, Initial residual = 0.0210863, Final residual = 0.00135452, No Iterations 1
smoothSolver:  Solving for Uz, Initial residual = 0.0302146, Final residual = 0.00200109, No Iterations 1
GAMG:  Solving for p, Initial residual = 0.118372, Final residual = 0.00111009, No Iterations 22
time step continuity errors : sum local = 0.000271317, global = -1.30337e-07, cumulative = 2.71453e-07
smoothSolver:  Solving for omega, Initial residual = 0.00547524, Final residual = 0.000262335, No Iterations 2
smoothSolver:  Solving for k, Initial residual = 0.0344819, Final residual = 0.00262156, No Iterations 1
ExecutionTime = 0.78 s  ClockTime = 0 s

forceCoeffs forceCoeffs output:
    Cm    = 0.0983643
    Cd    = 0.00384852
    Cl    = -0.151098
    Cl(f) = 0.0228152
    Cl(r) = -0.173913

nearWallFields near output:
    Sampling fields to 4
Time = 5

smoothSolver:  Solving for Ux, Initial residual = 0.0219395, Final residual = 0.00155659, No Iterations 1
smoothSolver:  Solving for Uz, Initial residual = 0.0271929, Final residual = 0.00203634, No Iterations 1
GAMG:  Solving for p, Initial residual = 0.127473, Final residual = 0.00120879, No Iterations 29
time step continuity errors : sum local = 0.000245035, global = 1.62665e-07, cumulative = 4.34118e-07
smoothSolver:  Solving for omega, Initial residual = 0.00411842, Final residual = 0.000206202, No Iterations 2
smoothSolver:  Solving for k, Initial residual = 0.0204844, Final residual = 0.00178541, No Iterations 1
ExecutionTime = 0.91 s  ClockTime = 1 s

forceCoeffs forceCoeffs output:
    Cm    = 0.0837136
    Cd    = 0.0221295
    Cl    = -0.110663
    Cl(f) = 0.0283818
    Cl(r) = -0.139045

nearWallFields near output:
    Sampling fields to 5
Time = 6

smoothSolver:  Solving for Ux, Initial residual = 0.0194337, Final residual = 0.00128591, No Iterations 1
smoothSolver:  Solving for Uz, Initial residual = 0.0253318, Final residual = 0.00175024, No Iterations 1
GAMG:  Solving for p, Initial residual = 0.107733, Final residual = 0.00102323, No Iterations 22
time step continuity errors : sum local = 0.000257888, global = -1.39313e-07, cumulative = 2.94805e-07
smoothSolver:  Solving for omega, Initial residual = 0.00321973, Final residual = 0.000179043, No Iterations 2
smoothSolver:  Solving for k, Initial residual = 0.0138854, Final residual = 0.00135764, No Iterations 1
ExecutionTime = 1.04 s  ClockTime = 1 s

forceCoeffs forceCoeffs output:
    Cm    = 0.0772203
    Cd    = 0.0444611
    Cl    = -0.0668177
    Cl(f) = 0.0438115
    Cl(r) = -0.110629

nearWallFields near output:
    Sampling fields to 6
Time = 7

smoothSolver:  Solving for Ux, Initial residual = 0.0180772, Final residual = 0.00108168, No Iterations 1
smoothSolver:  Solving for Uz, Initial residual = 0.0238821, Final residual = 0.00147176, No Iterations 1
GAMG:  Solving for p, Initial residual = 0.0852458, Final residual = 0.000843611, No Iterations 18
time step continuity errors : sum local = 0.000246931, global = -1.30006e-07, cumulative = 1.64799e-07
smoothSolver:  Solving for omega, Initial residual = 0.0027098, Final residual = 0.000161833, No Iterations 2
smoothSolver:  Solving for k, Initial residual = 0.0101029, Final residual = 0.000324891, No Iterations 2
ExecutionTime = 1.14 s  ClockTime = 1 s

forceCoeffs forceCoeffs output:
    Cm    = 0.0770861
    Cd    = -0.0128772
    Cl    = -0.0541048
    Cl(f) = 0.0500337
    Cl(r) = -0.104139

nearWallFields near output:
    Sampling fields to 7
Time = 8

smoothSolver:  Solving for Ux, Initial residual = 0.0177113, Final residual = 0.000967507, No Iterations 1
smoothSolver:  Solving for Uz, Initial residual = 0.0233173, Final residual = 0.00149668, No Iterations 1
GAMG:  Solving for p, Initial residual = 0.089237, Final residual = 0.000842327, No Iterations 28
time step continuity errors : sum local = 0.000225834, global = 1.22779e-07, cumulative = 2.87578e-07
smoothSolver:  Solving for omega, Initial residual = 0.00236934, Final residual = 0.00014923, No Iterations 2
smoothSolver:  Solving for k, Initial residual = 0.00752224, Final residual = 0.000260436, No Iterations 2
ExecutionTime = 1.27 s  ClockTime = 1 s

forceCoeffs forceCoeffs output:
    Cm    = 0.0748796
    Cd    = -0.0888907
    Cl    = -0.0419298
    Cl(f) = 0.0539147
    Cl(r) = -0.0958445

nearWallFields near output:
    Sampling fields to 8
Time = 9

smoothSolver:  Solving for Ux, Initial residual = 0.0164989, Final residual = 0.000901359, No Iterations 1
smoothSolver:  Solving for Uz, Initial residual = 0.0221641, Final residual = 0.00146525, No Iterations 1
GAMG:  Solving for p, Initial residual = 0.10991, Final residual = 0.00105253, No Iterations 25
time step continuity errors : sum local = 0.000229716, global = -1.37831e-07, cumulative = 1.49746e-07
smoothSolver:  Solving for omega, Initial residual = 0.00212814, Final residual = 0.000138865, No Iterations 2
smoothSolver:  Solving for k, Initial residual = 0.00598892, Final residual = 0.000227424, No Iterations 2
ExecutionTime = 1.37 s  ClockTime = 1 s

forceCoeffs forceCoeffs output:
    Cm    = 0.0713652
    Cd    = -0.088847
    Cl    = -0.0232448
    Cl(f) = 0.0597428
    Cl(r) = -0.0829877

nearWallFields near output:
    Sampling fields to 9
Time = 10

smoothSolver:  Solving for Ux, Initial residual = 0.0154364, Final residual = 0.000822708, No Iterations 1
smoothSolver:  Solving for Uz, Initial residual = 0.0212812, Final residual = 0.00137505, No Iterations 1
GAMG:  Solving for p, Initial residual = 0.114075, Final residual = 0.00106546, No Iterations 18
time step continuity errors : sum local = 0.0002121, global = 2.49577e-07, cumulative = 3.99324e-07
smoothSolver:  Solving for omega, Initial residual = 0.00194649, Final residual = 0.000128354, No Iterations 2
smoothSolver:  Solving for k, Initial residual = 0.00501599, Final residual = 0.000213559, No Iterations 2
ExecutionTime = 1.45 s  ClockTime = 1 s

forceCoeffs forceCoeffs output:
    Cm    = 0.0722011
    Cd    = -0.0176478
    Cl    = -0.0192789
    Cl(f) = 0.0625617
    Cl(r) = -0.0818406

nearWallFields near output:
    Sampling fields to 10
Time = 11

smoothSolver:  Solving for Ux, Initial residual = 0.0144677, Final residual = 0.000675422, No Iterations 1
smoothSolver:  Solving for Uz, Initial residual = 0.0204965, Final residual = 0.00120808, No Iterations 1
GAMG:  Solving for p, Initial residual = 0.106714, Final residual = 0.00103292, No Iterations 25
time step continuity errors : sum local = 0.000222796, global = 1.71352e-07, cumulative = 5.70675e-07
smoothSolver:  Solving for omega, Initial residual = 0.00180632, Final residual = 0.00011838, No Iterations 2
smoothSolver:  Solving for k, Initial residual = 0.00429014, Final residual = 0.000204183, No Iterations 2
ExecutionTime = 1.54 s  ClockTime = 1 s

forceCoeffs forceCoeffs output:
    Cm    = 0.0773981
    Cd    = 0.0503737
    Cl    = -0.0340577
    Cl(f) = 0.0603692
    Cl(r) = -0.0944269

nearWallFields near output:
    Sampling fields to 11
Time = 12

smoothSolver:  Solving for Ux, Initial residual = 0.0140487, Final residual = 0.000657791, No Iterations 1
smoothSolver:  Solving for Uz, Initial residual = 0.019467, Final residual = 0.00106974, No Iterations 1
GAMG:  Solving for p, Initial residual = 0.0973703, Final residual = 0.00096127, No Iterations 25
time step continuity errors : sum local = 0.000229304, global = 1.91063e-07, cumulative = 7.61738e-07
smoothSolver:  Solving for omega, Initial residual = 0.00168232, Final residual = 0.000110653, No Iterations 2
smoothSolver:  Solving for k, Initial residual = 0.00376624, Final residual = 0.000197396, No Iterations 2
ExecutionTime = 1.64 s  ClockTime = 1 s

forceCoeffs forceCoeffs output:
    Cm    = 0.0824548
    Cd    = 0.0698486
    Cl    = -0.0532298
    Cl(f) = 0.0558399
    Cl(r) = -0.10907

nearWallFields near output:
    Sampling fields to 12
Time = 13

smoothSolver:  Solving for Ux, Initial residual = 0.0135225, Final residual = 0.000604844, No Iterations 1
smoothSolver:  Solving for Uz, Initial residual = 0.0188389, Final residual = 0.0010725, No Iterations 1
GAMG:  Solving for p, Initial residual = 0.089526, Final residual = 0.000851479, No Iterations 20
time step continuity errors : sum local = 0.000212018, global = -2.00871e-08, cumulative = 7.41651e-07
smoothSolver:  Solving for omega, Initial residual = 0.00158307, Final residual = 0.000106114, No Iterations 2
smoothSolver:  Solving for k, Initial residual = 0.00332664, Final residual = 0.000187932, No Iterations 2
ExecutionTime = 1.73 s  ClockTime = 1 s

forceCoeffs forceCoeffs output:
    Cm    = 0.0853052
    Cd    = 0.0536745
    Cl    = -0.0692893
    Cl(f) = 0.0506605
    Cl(r) = -0.11995

nearWallFields near output:
    Sampling fields to 13
Time = 14

smoothSolver:  Solving for Ux, Initial residual = 0.0130383, Final residual = 0.00054701, No Iterations 1
smoothSolver:  Solving for Uz, Initial residual = 0.018367, Final residual = 0.00109139, No Iterations 1
GAMG:  Solving for p, Initial residual = 0.0886187, Final residual = 0.000866641, No Iterations 22
time step continuity errors : sum local = 0.000217146, global = 1.15554e-07, cumulative = 8.57205e-07
smoothSolver:  Solving for omega, Initial residual = 0.00148247, Final residual = 0.000101808, No Iterations 2
smoothSolver:  Solving for k, Initial residual = 0.00299878, Final residual = 0.000178961, No Iterations 2
ExecutionTime = 1.81 s  ClockTime = 2 s

forceCoeffs forceCoeffs output:
    Cm    = 0.0867539
    Cd    = 0.0330288
    Cl    = -0.0822011
    Cl(f) = 0.0456534
    Cl(r) = -0.127854

nearWallFields near output:
    Sampling fields to 14
Time = 15

smoothSolver:  Solving for Ux, Initial residual = 0.0125438, Final residual = 0.000524541, No Iterations 1
smoothSolver:  Solving for Uz, Initial residual = 0.0175863, Final residual = 0.00104152, No Iterations 1
GAMG:  Solving for p, Initial residual = 0.0886148, Final residual = 0.000879231, No Iterations 25
time step continuity errors : sum local = 0.000219256, global = -1.27723e-07, cumulative = 7.29482e-07
smoothSolver:  Solving for omega, Initial residual = 0.00137962, Final residual = 9.73383e-05, No Iterations 2
smoothSolver:  Solving for k, Initial residual = 0.00275665, Final residual = 0.000172782, No Iterations 2
ExecutionTime = 1.91 s  ClockTime = 2 s

forceCoeffs forceCoeffs output:
    Cm    = 0.0870655
    Cd    = 0.0201379
    Cl    = -0.0883424
    Cl(f) = 0.0428943
    Cl(r) = -0.131237

nearWallFields near output:
    Sampling fields to 15
Time = 16

smoothSolver:  Solving for Ux, Initial residual = 0.0118539, Final residual = 0.000500262, No Iterations 1
smoothSolver:  Solving for Uz, Initial residual = 0.0168444, Final residual = 0.000988178, No Iterations 1
GAMG:  Solving for p, Initial residual = 0.0873556, Final residual = 0.000861302, No Iterations 22
time step continuity errors : sum local = 0.000211451, global = -2.39883e-07, cumulative = 4.896e-07
smoothSolver:  Solving for omega, Initial residual = 0.00129306, Final residual = 9.32863e-05, No Iterations 2
smoothSolver:  Solving for k, Initial residual = 0.00258544, Final residual = 0.000166762, No Iterations 2
ExecutionTime = 2.02 s  ClockTime = 2 s

forceCoeffs forceCoeffs output:
    Cm    = 0.0856217
    Cd    = 0.0123689
    Cl    = -0.0848274
    Cl(f) = 0.043208
    Cl(r) = -0.128035

nearWallFields near output:
    Sampling fields to 16
Time = 17

smoothSolver:  Solving for Ux, Initial residual = 0.0111643, Final residual = 0.000454442, No Iterations 1
smoothSolver:  Solving for Uz, Initial residual = 0.016449, Final residual = 0.000970622, No Iterations 1
GAMG:  Solving for p, Initial residual = 0.0895887, Final residual = 0.000834136, No Iterations 21
time step continuity errors : sum local = 0.00020002, global = 1.75818e-07, cumulative = 6.65418e-07
smoothSolver:  Solving for omega, Initial residual = 0.00121423, Final residual = 8.84976e-05, No Iterations 2
smoothSolver:  Solving for k, Initial residual = 0.00245093, Final residual = 0.000160465, No Iterations 2
ExecutionTime = 2.11 s  ClockTime = 2 s

forceCoeffs forceCoeffs output:
    Cm    = 0.082524
    Cd    = 0.00774505
    Cl    = -0.0761191
    Cl(f) = 0.0444645
    Cl(r) = -0.120584

nearWallFields near output:
    Sampling fields to 17
Time = 18

smoothSolver:  Solving for Ux, Initial residual = 0.0108321, Final residual = 0.000440379, No Iterations 1
smoothSolver:  Solving for Uz, Initial residual = 0.0159418, Final residual = 0.000922805, No Iterations 1
GAMG:  Solving for p, Initial residual = 0.0914017, Final residual = 0.000888207, No Iterations 24
time step continuity errors : sum local = 0.000208358, global = 1.37097e-07, cumulative = 8.02514e-07
smoothSolver:  Solving for omega, Initial residual = 0.00114812, Final residual = 8.46786e-05, No Iterations 2
smoothSolver:  Solving for k, Initial residual = 0.00235942, Final residual = 0.000154454, No Iterations 2
ExecutionTime = 2.2 s  ClockTime = 2 s

forceCoeffs forceCoeffs output:
    Cm    = 0.0788999
    Cd    = 0.00888895
    Cl    = -0.0688187
    Cl(f) = 0.0444905
    Cl(r) = -0.113309

nearWallFields near output:
    Sampling fields to 18
Time = 19

smoothSolver:  Solving for Ux, Initial residual = 0.0105108, Final residual = 0.000435047, No Iterations 1
smoothSolver:  Solving for Uz, Initial residual = 0.0152702, Final residual = 0.000858422, No Iterations 1
GAMG:  Solving for p, Initial residual = 0.0907849, Final residual = 0.000861269, No Iterations 24
time step continuity errors : sum local = 0.000201409, global = 1.41715e-07, cumulative = 9.44229e-07
smoothSolver:  Solving for omega, Initial residual = 0.00110221, Final residual = 8.27433e-05, No Iterations 2
smoothSolver:  Solving for k, Initial residual = 0.00231015, Final residual = 0.000157743, No Iterations 2
ExecutionTime = 2.29 s  ClockTime = 2 s

forceCoeffs forceCoeffs output:
    Cm    = 0.0760766
    Cd    = 0.0158048
    Cl    = -0.0645484
    Cl(f) = 0.0438024
    Cl(r) = -0.108351

nearWallFields near output:
    Sampling fields to 19
Time = 20

smoothSolver:  Solving for Ux, Initial residual = 0.0101089, Final residual = 0.000438731, No Iterations 1
smoothSolver:  Solving for Uz, Initial residual = 0.0146732, Final residual = 0.00081496, No Iterations 1
GAMG:  Solving for p, Initial residual = 0.0883912, Final residual = 0.000881119, No Iterations 20
time step continuity errors : sum local = 0.00020749, global = 2.14972e-07, cumulative = 1.1592e-06
smoothSolver:  Solving for omega, Initial residual = 0.00105588, Final residual = 8.03456e-05, No Iterations 2
smoothSolver:  Solving for k, Initial residual = 0.00222463, Final residual = 0.000160107, No Iterations 2
ExecutionTime = 2.37 s  ClockTime = 2 s

forceCoeffs forceCoeffs output:
    Cm    = 0.0747075
    Cd    = 0.0232868
    Cl    = -0.0612971
    Cl(f) = 0.044059
    Cl(r) = -0.105356

nearWallFields near output:
    Sampling fields to 20
Time = 21

smoothSolver:  Solving for Ux, Initial residual = 0.00980839, Final residual = 0.000445998, No Iterations 1
smoothSolver:  Solving for Uz, Initial residual = 0.0140716, Final residual = 0.00077217, No Iterations 1
GAMG:  Solving for p, Initial residual = 0.0874951, Final residual = 0.000818853, No Iterations 23
time step continuity errors : sum local = 0.000195169, global = -1.21268e-07, cumulative = 1.03793e-06
smoothSolver:  Solving for omega, Initial residual = 0.00100362, Final residual = 7.69615e-05, No Iterations 2
smoothSolver:  Solving for k, Initial residual = 0.0021359, Final residual = 0.00015737, No Iterations 2
ExecutionTime = 2.46 s  ClockTime = 2 s

forceCoeffs forceCoeffs output:
    Cm    = 0.0752873
    Cd    = 0.0263598
    Cl    = -0.0607818
    Cl(f) = 0.0448964
    Cl(r) = -0.105678

nearWallFields near output:
    Sampling fields to 21
Time = 22

smoothSolver:  Solving for Ux, Initial residual = 0.00943737, Final residual = 0.000440265, No Iterations 1
smoothSolver:  Solving for Uz, Initial residual = 0.0134665, Final residual = 0.000739123, No Iterations 1
GAMG:  Solving for p, Initial residual = 0.087076, Final residual = 0.000858723, No Iterations 23
time step continuity errors : sum local = 0.000205631, global = 1.42641e-07, cumulative = 1.18058e-06
smoothSolver:  Solving for omega, Initial residual = 0.000971119, Final residual = 7.379e-05, No Iterations 2
smoothSolver:  Solving for k, Initial residual = 0.00211413, Final residual = 0.000168379, No Iterations 2
ExecutionTime = 2.55 s  ClockTime = 2 s

forceCoeffs forceCoeffs output:
    Cm    = 0.0772436
    Cd    = 0.0235615
    Cl    = -0.0648396
    Cl(f) = 0.0448238
    Cl(r) = -0.109663

nearWallFields near output:
    Sampling fields to 22
Time = 23

smoothSolver:  Solving for Ux, Initial residual = 0.00907269, Final residual = 0.000432318, No Iterations 1
smoothSolver:  Solving for Uz, Initial residual = 0.0129596, Final residual = 0.000732281, No Iterations 1
GAMG:  Solving for p, Initial residual = 0.0861261, Final residual = 0.000838098, No Iterations 21
time step continuity errors : sum local = 0.000198517, global = 2.13665e-07, cumulative = 1.39424e-06
smoothSolver:  Solving for omega, Initial residual = 0.000966977, Final residual = 7.35667e-05, No Iterations 2
smoothSolver:  Solving for k, Initial residual = 0.00212898, Final residual = 0.000174989, No Iterations 2
ExecutionTime = 2.63 s  ClockTime = 2 s

forceCoeffs forceCoeffs output:
    Cm    = 0.0766735
    Cd    = 0.0201366
    Cl    = -0.0648918
    Cl(f) = 0.0442276
    Cl(r) = -0.109119

nearWallFields near output:
    Sampling fields to 23
Time = 24

smoothSolver:  Solving for Ux, Initial residual = 0.00880125, Final residual = 0.000431852, No Iterations 1
smoothSolver:  Solving for Uz, Initial residual = 0.0125494, Final residual = 0.000736137, No Iterations 1
GAMG:  Solving for p, Initial residual = 0.0857503, Final residual = 0.000806589, No Iterations 21
time step continuity errors : sum local = 0.000188176, global = -2.89036e-07, cumulative = 1.1052e-06
smoothSolver:  Solving for omega, Initial residual = 0.000947717, Final residual = 6.98546e-05, No Iterations 2
smoothSolver:  Solving for k, Initial residual = 0.00214483, Final residual = 0.000184912, No Iterations 2
ExecutionTime = 2.72 s  ClockTime = 2 s

forceCoeffs forceCoeffs output:
    Cm    = 0.0739619
    Cd    = 0.0184658
    Cl    = -0.0606024
    Cl(f) = 0.0436607
    Cl(r) = -0.104263

nearWallFields near output:
    Sampling fields to 24
Time = 25

smoothSolver:  Solving for Ux, Initial residual = 0.00857431, Final residual = 0.000433042, No Iterations 1
smoothSolver:  Solving for Uz, Initial residual = 0.0121084, Final residual = 0.000739906, No Iterations 1
GAMG:  Solving for p, Initial residual = 0.0855371, Final residual = 0.00082102, No Iterations 23
time step continuity errors : sum local = 0.000189269, global = -1.30501e-07, cumulative = 9.74703e-07
smoothSolver:  Solving for omega, Initial residual = 0.000923523, Final residual = 6.94385e-05, No Iterations 2
smoothSolver:  Solving for k, Initial residual = 0.00239068, Final residual = 0.000221277, No Iterations 2
ExecutionTime = 2.81 s  ClockTime = 3 s

forceCoeffs forceCoeffs output:
    Cm    = 0.0709132
    Cd    = 0.0190871
    Cl    = -0.05448
    Cl(f) = 0.0436732
    Cl(r) = -0.0981532

nearWallFields near output:
    Sampling fields to 25
Time = 26

smoothSolver:  Solving for Ux, Initial residual = 0.0082787, Final residual = 0.000425061, No Iterations 1
smoothSolver:  Solving for Uz, Initial residual = 0.0116384, Final residual = 0.000725221, No Iterations 1
GAMG:  Solving for p, Initial residual = 0.0855115, Final residual = 0.000816196, No Iterations 22
time step continuity errors : sum local = 0.000187562, global = 1.80765e-07, cumulative = 1.15547e-06
smoothSolver:  Solving for omega, Initial residual = 0.000888045, Final residual = 6.74072e-05, No Iterations 2
smoothSolver:  Solving for k, Initial residual = 0.00255144, Final residual = 0.000247406, No Iterations 2
ExecutionTime = 2.9 s  ClockTime = 3 s

forceCoeffs forceCoeffs output:
    Cm    = 0.0696107
    Cd    = 0.0211666
    Cl    = -0.0519129
    Cl(f) = 0.0436543
    Cl(r) = -0.0955672

nearWallFields near output:
    Sampling fields to 26
Time = 27

smoothSolver:  Solving for Ux, Initial residual = 0.00796239, Final residual = 0.00041109, No Iterations 1
smoothSolver:  Solving for Uz, Initial residual = 0.0112068, Final residual = 0.000698501, No Iterations 1
GAMG:  Solving for p, Initial residual = 0.0841374, Final residual = 0.000822855, No Iterations 20
time step continuity errors : sum local = 0.00018982, global = 1.73704e-07, cumulative = 1.32917e-06
smoothSolver:  Solving for omega, Initial residual = 0.000810285, Final residual = 6.06248e-05, No Iterations 2
smoothSolver:  Solving for k, Initial residual = 0.00255102, Final residual = 0.000109049, No Iterations 3
ExecutionTime = 2.99 s  ClockTime = 3 s

forceCoeffs forceCoeffs output:
    Cm    = 0.0696312
    Cd    = 0.0230528
    Cl    = -0.0529556
    Cl(f) = 0.0431534
    Cl(r) = -0.096109

nearWallFields near output:
    Sampling fields to 27
Time = 28

smoothSolver:  Solving for Ux, Initial residual = 0.00769603, Final residual = 0.000399358, No Iterations 1
smoothSolver:  Solving for Uz, Initial residual = 0.0107831, Final residual = 0.000669837, No Iterations 1
GAMG:  Solving for p, Initial residual = 0.0822281, Final residual = 0.000804337, No Iterations 22
time step continuity errors : sum local = 0.000186418, global = 1.22589e-07, cumulative = 1.45176e-06
smoothSolver:  Solving for omega, Initial residual = 0.000782182, Final residual = 5.82473e-05, No Iterations 2
smoothSolver:  Solving for k, Initial residual = 0.00258565, Final residual = 0.000116482, No Iterations 3
ExecutionTime = 3.08 s  ClockTime = 3 s

forceCoeffs forceCoeffs output:
    Cm    = 0.0690144
    Cd    = 0.0233534
    Cl    = -0.053098
    Cl(f) = 0.0424655
    Cl(r) = -0.0955634

nearWallFields near output:
    Sampling fields to 28
Time = 29

smoothSolver:  Solving for Ux, Initial residual = 0.0074825, Final residual = 0.000391459, No Iterations 1
smoothSolver:  Solving for Uz, Initial residual = 0.0103702, Final residual = 0.000650963, No Iterations 1
GAMG:  Solving for p, Initial residual = 0.0801923, Final residual = 0.000769502, No Iterations 24
time step continuity errors : sum local = 0.000178634, global = 1.42e-07, cumulative = 1.59376e-06
smoothSolver:  Solving for omega, Initial residual = 0.000744086, Final residual = 5.58881e-05, No Iterations 2
smoothSolver:  Solving for k, Initial residual = 0.00293648, Final residual = 0.000142031, No Iterations 3
ExecutionTime = 3.17 s  ClockTime = 3 s

forceCoeffs forceCoeffs output:
    Cm    = 0.0668514
    Cd    = 0.022734
    Cl    = -0.0495952
    Cl(f) = 0.0420538
    Cl(r) = -0.091649

nearWallFields near output:
    Sampling fields to 29
Time = 30

smoothSolver:  Solving for Ux, Initial residual = 0.00733112, Final residual = 0.0003871, No Iterations 1
smoothSolver:  Solving for Uz, Initial residual = 0.00997272, Final residual = 0.000637556, No Iterations 1
GAMG:  Solving for p, Initial residual = 0.0785662, Final residual = 0.00078176, No Iterations 22
time step continuity errors : sum local = 0.000180458, global = 1.66733e-07, cumulative = 1.76049e-06
smoothSolver:  Solving for omega, Initial residual = 0.000704919, Final residual = 5.42502e-05, No Iterations 2
smoothSolver:  Solving for k, Initial residual = 0.00316881, Final residual = 0.000164705, No Iterations 3
ExecutionTime = 3.27 s  ClockTime = 3 s

forceCoeffs forceCoeffs output:
    Cm    = 0.0635108
    Cd    = 0.0241916
    Cl    = -0.0430468
    Cl(f) = 0.0419874
    Cl(r) = -0.0850342

nearWallFields near output:
    Sampling fields to 30
Time = 31

smoothSolver:  Solving for Ux, Initial residual = 0.00720048, Final residual = 0.000392703, No Iterations 1
smoothSolver:  Solving for Uz, Initial residual = 0.00956749, Final residual = 0.000621317, No Iterations 1
GAMG:  Solving for p, Initial residual = 0.0764785, Final residual = 0.000701993, No Iterations 21
time step continuity errors : sum local = 0.000161284, global = -1.50489e-07, cumulative = 1.61001e-06
smoothSolver:  Solving for omega, Initial residual = 0.000636051, Final residual = 4.89819e-05, No Iterations 2
smoothSolver:  Solving for k, Initial residual = 0.00336126, Final residual = 0.000181676, No Iterations 3
ExecutionTime = 3.37 s  ClockTime = 3 s

forceCoeffs forceCoeffs output:
    Cm    = 0.0600646
    Cd    = 0.0264912
    Cl    = -0.0361235
    Cl(f) = 0.0420028
    Cl(r) = -0.0781263

nearWallFields near output:
    Sampling fields to 31
Time = 32

smoothSolver:  Solving for Ux, Initial residual = 0.00707653, Final residual = 0.000406268, No Iterations 1
smoothSolver:  Solving for Uz, Initial residual = 0.00918375, Final residual = 0.000603197, No Iterations 1
GAMG:  Solving for p, Initial residual = 0.0747402, Final residual = 0.00071307, No Iterations 23
time step continuity errors : sum local = 0.000163131, global = 1.41358e-07, cumulative = 1.75136e-06
smoothSolver:  Solving for omega, Initial residual = 0.000617581, Final residual = 4.7539e-05, No Iterations 2
smoothSolver:  Solving for k, Initial residual = 0.0034029, Final residual = 0.000191779, No Iterations 3
ExecutionTime = 3.5 s  ClockTime = 3 s

forceCoeffs forceCoeffs output:
    Cm    = 0.0567933
    Cd    = 0.0278021
    Cl    = -0.0294549
    Cl(f) = 0.0420658
    Cl(r) = -0.0715207

nearWallFields near output:
    Sampling fields to 32
Time = 33

smoothSolver:  Solving for Ux, Initial residual = 0.00693131, Final residual = 0.000418285, No Iterations 1
smoothSolver:  Solving for Uz, Initial residual = 0.00884759, Final residual = 0.00058219, No Iterations 1
GAMG:  Solving for p, Initial residual = 0.0739081, Final residual = 0.000673581, No Iterations 24
time step continuity errors : sum local = 0.000153594, global = -5.95247e-08, cumulative = 1.69184e-06
smoothSolver:  Solving for omega, Initial residual = 0.000592541, Final residual = 4.72398e-05, No Iterations 2
smoothSolver:  Solving for k, Initial residual = 0.00381031, Final residual = 0.000203846, No Iterations 3
ExecutionTime = 3.63 s  ClockTime = 3 s

forceCoeffs forceCoeffs output:
    Cm    = 0.0533177
    Cd    = 0.0281817
    Cl    = -0.0220763
    Cl(f) = 0.0422796
    Cl(r) = -0.0643559

nearWallFields near output:
    Sampling fields to 33
Time = 34

smoothSolver:  Solving for Ux, Initial residual = 0.0068238, Final residual = 0.000429865, No Iterations 1
smoothSolver:  Solving for Uz, Initial residual = 0.00854477, Final residual = 0.000565474, No Iterations 1
GAMG:  Solving for p, Initial residual = 0.0722355, Final residual = 0.000688728, No Iterations 23
time step continuity errors : sum local = 0.000156498, global = 2.51748e-07, cumulative = 1.94359e-06
smoothSolver:  Solving for omega, Initial residual = 0.00054542, Final residual = 4.31019e-05, No Iterations 2
smoothSolver:  Solving for k, Initial residual = 0.00367079, Final residual = 0.000218594, No Iterations 3
ExecutionTime = 3.76 s  ClockTime = 3 s

forceCoeffs forceCoeffs output:
    Cm    = 0.0502335
    Cd    = 0.02952
    Cl    = -0.0161812
    Cl(f) = 0.0421429
    Cl(r) = -0.0583242

nearWallFields near output:
    Sampling fields to 34
Time = 35

smoothSolver:  Solving for Ux, Initial residual = 0.00677084, Final residual = 0.000437286, No Iterations 1
smoothSolver:  Solving for Uz, Initial residual = 0.00827352, Final residual = 0.000550312, No Iterations 1
GAMG:  Solving for p, Initial residual = 0.0706248, Final residual = 0.00068413, No Iterations 21
time step continuity errors : sum local = 0.000155466, global = -1.1336e-07, cumulative = 1.83023e-06
smoothSolver:  Solving for omega, Initial residual = 0.000547858, Final residual = 4.367e-05, No Iterations 2
smoothSolver:  Solving for k, Initial residual = 0.00372637, Final residual = 0.000230371, No Iterations 3
ExecutionTime = 3.88 s  ClockTime = 4 s

forceCoeffs forceCoeffs output:
    Cm    = 0.0462175
    Cd    = 0.0313896
    Cl    = -0.00805876
    Cl(f) = 0.0421882
    Cl(r) = -0.0502469

nearWallFields near output:
    Sampling fields to 35
Time = 36

smoothSolver:  Solving for Ux, Initial residual = 0.00675135, Final residual = 0.000446896, No Iterations 1
smoothSolver:  Solving for Uz, Initial residual = 0.0080217, Final residual = 0.000545737, No Iterations 1
GAMG:  Solving for p, Initial residual = 0.0692611, Final residual = 0.00065033, No Iterations 22
time step continuity errors : sum local = 0.000147671, global = -2.0844e-07, cumulative = 1.62179e-06
smoothSolver:  Solving for omega, Initial residual = 0.000566376, Final residual = 4.32035e-05, No Iterations 2
smoothSolver:  Solving for k, Initial residual = 0.00379115, Final residual = 0.000223908, No Iterations 3
ExecutionTime = 4 s  ClockTime = 4 s

forceCoeffs forceCoeffs output:
    Cm    = 0.0409029
    Cd    = 0.0323611
    Cl    = 0.0028704
    Cl(f) = 0.0423381
    Cl(r) = -0.0394677

nearWallFields near output:
    Sampling fields to 36
Time = 37

smoothSolver:  Solving for Ux, Initial residual = 0.00677775, Final residual = 0.000471376, No Iterations 1
smoothSolver:  Solving for Uz, Initial residual = 0.00779069, Final residual = 0.000548156, No Iterations 1
GAMG:  Solving for p, Initial residual = 0.0687856, Final residual = 0.000671317, No Iterations 23
time step continuity errors : sum local = 0.000151879, global = 2.34809e-07, cumulative = 1.85659e-06
smoothSolver:  Solving for omega, Initial residual = 0.0006172, Final residual = 4.71305e-05, No Iterations 2
smoothSolver:  Solving for k, Initial residual = 0.0036998, Final residual = 0.000214215, No Iterations 3
ExecutionTime = 4.13 s  ClockTime = 4 s

forceCoeffs forceCoeffs output:
    Cm    = 0.034777
    Cd    = 0.0323117
    Cl    = 0.0155841
    Cl(f) = 0.0425691
    Cl(r) = -0.026985

nearWallFields near output:
    Sampling fields to 37
Time = 38

smoothSolver:  Solving for Ux, Initial residual = 0.00681898, Final residual = 0.000504063, No Iterations 1
smoothSolver:  Solving for Uz, Initial residual = 0.00759261, Final residual = 0.000558392, No Iterations 1
GAMG:  Solving for p, Initial residual = 0.0678101, Final residual = 0.000673401, No Iterations 22
time step continuity errors : sum local = 0.000151305, global = -3.62719e-07, cumulative = 1.49388e-06
smoothSolver:  Solving for omega, Initial residual = 0.000648316, Final residual = 4.83092e-05, No Iterations 2
smoothSolver:  Solving for k, Initial residual = 0.00368949, Final residual = 0.000220922, No Iterations 3
ExecutionTime = 4.25 s  ClockTime = 4 s

forceCoeffs forceCoeffs output:
    Cm    = 0.0292017
    Cd    = 0.0333328
    Cl    = 0.0267625
    Cl(f) = 0.0425829
    Cl(r) = -0.0158204

nearWallFields near output:
    Sampling fields to 38
Time = 39

smoothSolver:  Solving for Ux, Initial residual = 0.00684833, Final residual = 0.000536504, No Iterations 1
smoothSolver:  Solving for Uz, Initial residual = 0.00740033, Final residual = 0.000570821, No Iterations 1
GAMG:  Solving for p, Initial residual = 0.0671112, Final residual = 0.000624628, No Iterations 22
time step continuity errors : sum local = 0.00013967, global = 2.19641e-07, cumulative = 1.71352e-06
smoothSolver:  Solving for omega, Initial residual = 0.000660526, Final residual = 5.33205e-05, No Iterations 2
smoothSolver:  Solving for k, Initial residual = 0.00348708, Final residual = 0.000217172, No Iterations 3
ExecutionTime = 4.37 s  ClockTime = 4 s

forceCoeffs forceCoeffs output:
    Cm    = 0.0243254
    Cd    = 0.0358572
    Cl    = 0.0373099
    Cl(f) = 0.0429803
    Cl(r) = -0.00567045

nearWallFields near output:
    Sampling fields to 39
Time = 40

smoothSolver:  Solving for Ux, Initial residual = 0.00689408, Final residual = 0.00056995, No Iterations 1
smoothSolver:  Solving for Uz, Initial residual = 0.00719766, Final residual = 0.000585235, No Iterations 1
GAMG:  Solving for p, Initial residual = 0.0662465, Final residual = 0.000605511, No Iterations 21
time step continuity errors : sum local = 0.000135086, global = -1.20248e-07, cumulative = 1.59327e-06
smoothSolver:  Solving for omega, Initial residual = 0.000662451, Final residual = 5.65956e-05, No Iterations 2
smoothSolver:  Solving for k, Initial residual = 0.00339518, Final residual = 0.000207954, No Iterations 3
ExecutionTime = 4.51 s  ClockTime = 4 s

forceCoeffs forceCoeffs output:
    Cm    = 0.0200382
    Cd    = 0.039258
    Cl    = 0.0473318
    Cl(f) = 0.0437041
    Cl(r) = 0.00362774

nearWallFields near output:
    Sampling fields to 40
Time = 41

smoothSolver:  Solving for Ux, Initial residual = 0.00700434, Final residual = 0.000612349, No Iterations 1
smoothSolver:  Solving for Uz, Initial residual = 0.00700119, Final residual = 0.000599556, No Iterations 1
GAMG:  Solving for p, Initial residual = 0.0658842, Final residual = 0.000610384, No Iterations 21
time step continuity errors : sum local = 0.000135929, global = 2.62568e-07, cumulative = 1.85584e-06
smoothSolver:  Solving for omega, Initial residual = 0.000757506, Final residual = 7.06377e-05, No Iterations 2
smoothSolver:  Solving for k, Initial residual = 0.00318601, Final residual = 0.000200142, No Iterations 3
ExecutionTime = 4.66 s  ClockTime = 4 s

forceCoeffs forceCoeffs output:
    Cm    = 0.0159362
    Cd    = 0.0440065
    Cl    = 0.0560664
    Cl(f) = 0.0439694
    Cl(r) = 0.012097

nearWallFields near output:
    Sampling fields to 41
Time = 42

smoothSolver:  Solving for Ux, Initial residual = 0.00719032, Final residual = 0.000672805, No Iterations 1
smoothSolver:  Solving for Uz, Initial residual = 0.00684927, Final residual = 0.000619052, No Iterations 1
GAMG:  Solving for p, Initial residual = 0.0641517, Final residual = 0.000641453, No Iterations 20
time step continuity errors : sum local = 0.000141757, global = 3.36339e-07, cumulative = 2.19218e-06
smoothSolver:  Solving for omega, Initial residual = 0.000810482, Final residual = 7.88789e-05, No Iterations 2
smoothSolver:  Solving for k, Initial residual = 0.00320333, Final residual = 0.000200875, No Iterations 3
ExecutionTime = 4.79 s  ClockTime = 5 s

forceCoeffs forceCoeffs output:
    Cm    = 0.0104671
    Cd    = 0.0523626
    Cl    = 0.072505
    Cl(f) = 0.0467196
    Cl(r) = 0.0257854

nearWallFields near output:
    Sampling fields to 42
Time = 43

smoothSolver:  Solving for Ux, Initial residual = 0.00734241, Final residual = 0.000716956, No Iterations 1
smoothSolver:  Solving for Uz, Initial residual = 0.00669414, Final residual = 0.0006344, No Iterations 1
GAMG:  Solving for p, Initial residual = 0.0632267, Final residual = 0.000608155, No Iterations 20
time step continuity errors : sum local = 0.000134055, global = 2.38798e-07, cumulative = 2.43097e-06
smoothSolver:  Solving for omega, Initial residual = 0.000837531, Final residual = 3.21426e-05, No Iterations 3
smoothSolver:  Solving for k, Initial residual = 0.00319807, Final residual = 0.000200392, No Iterations 3
ExecutionTime = 4.93 s  ClockTime = 5 s

forceCoeffs forceCoeffs output:
    Cm    = 0.00600322
    Cd    = 0.0619722
    Cl    = 0.091342
    Cl(f) = 0.0516742
    Cl(r) = 0.0396678

nearWallFields near output:
    Sampling fields to 43
Time = 44

smoothSolver:  Solving for Ux, Initial residual = 0.0074735, Final residual = 0.000277534, No Iterations 2
smoothSolver:  Solving for Uz, Initial residual = 0.006492, Final residual = 0.000635642, No Iterations 1
GAMG:  Solving for p, Initial residual = 0.0615951, Final residual = 0.000571569, No Iterations 19
time step continuity errors : sum local = 0.000125871, global = -1.68541e-07, cumulative = 2.26243e-06
smoothSolver:  Solving for omega, Initial residual = 0.000805975, Final residual = 3.22039e-05, No Iterations 3
smoothSolver:  Solving for k, Initial residual = 0.00315928, Final residual = 0.000193387, No Iterations 3
ExecutionTime = 5.07 s  ClockTime = 5 s

forceCoeffs forceCoeffs output:
    Cm    = 0.00328057
    Cd    = 0.065707
    Cl    = 0.107486
    Cl(f) = 0.0570237
    Cl(r) = 0.0504626

nearWallFields near output:
    Sampling fields to 44
Time = 45

smoothSolver:  Solving for Ux, Initial residual = 0.0076236, Final residual = 0.000286626, No Iterations 2
smoothSolver:  Solving for Uz, Initial residual = 0.00636516, Final residual = 0.000245154, No Iterations 2
GAMG:  Solving for p, Initial residual = 0.0612788, Final residual = 0.000580429, No Iterations 18
time step continuity errors : sum local = 0.000127469, global = 3.50818e-07, cumulative = 2.61325e-06
smoothSolver:  Solving for omega, Initial residual = 0.000800431, Final residual = 3.20455e-05, No Iterations 3
smoothSolver:  Solving for k, Initial residual = 0.00293985, Final residual = 0.000180568, No Iterations 3
ExecutionTime = 5.19 s  ClockTime = 5 s

forceCoeffs forceCoeffs output:
    Cm    = 0.00598889
    Cd    = 0.0724386
    Cl    = 0.110407
    Cl(f) = 0.0611923
    Cl(r) = 0.0492145

nearWallFields near output:
    Sampling fields to 45
Time = 46

smoothSolver:  Solving for Ux, Initial residual = 0.00782822, Final residual = 0.000305746, No Iterations 2
smoothSolver:  Solving for Uz, Initial residual = 0.00612482, Final residual = 0.00023526, No Iterations 2
GAMG:  Solving for p, Initial residual = 0.0610499, Final residual = 0.000607534, No Iterations 18
time step continuity errors : sum local = 0.000133332, global = -2.05686e-07, cumulative = 2.40757e-06
smoothSolver:  Solving for omega, Initial residual = 0.000828899, Final residual = 3.48444e-05, No Iterations 3
smoothSolver:  Solving for k, Initial residual = 0.00302772, Final residual = 0.0001707, No Iterations 3
ExecutionTime = 5.32 s  ClockTime = 5 s

forceCoeffs forceCoeffs output:
    Cm    = 0.00849888
    Cd    = 0.0811272
    Cl    = 0.114667
    Cl(f) = 0.0658322
    Cl(r) = 0.0488344

nearWallFields near output:
    Sampling fields to 46
Time = 47

smoothSolver:  Solving for Ux, Initial residual = 0.00812499, Final residual = 0.00033559, No Iterations 2
smoothSolver:  Solving for Uz, Initial residual = 0.00593619, Final residual = 0.00022785, No Iterations 2
GAMG:  Solving for p, Initial residual = 0.0597798, Final residual = 0.000570475, No Iterations 18
time step continuity errors : sum local = 0.000124941, global = -2.42975e-07, cumulative = 2.16459e-06
smoothSolver:  Solving for omega, Initial residual = 0.000813859, Final residual = 3.60604e-05, No Iterations 3
smoothSolver:  Solving for k, Initial residual = 0.00291719, Final residual = 0.00017091, No Iterations 3
ExecutionTime = 5.46 s  ClockTime = 5 s

forceCoeffs forceCoeffs output:
    Cm    = 0.00826482
    Cd    = 0.0905712
    Cl    = 0.129663
    Cl(f) = 0.0730965
    Cl(r) = 0.0565669

nearWallFields near output:
    Sampling fields to 47
Time = 48

smoothSolver:  Solving for Ux, Initial residual = 0.00837239, Final residual = 0.000358895, No Iterations 2
smoothSolver:  Solving for Uz, Initial residual = 0.00577598, Final residual = 0.000228727, No Iterations 2
GAMG:  Solving for p, Initial residual = 0.059138, Final residual = 0.000579731, No Iterations 16
time step continuity errors : sum local = 0.000126908, global = -2.41484e-07, cumulative = 1.92311e-06
smoothSolver:  Solving for omega, Initial residual = 0.000785921, Final residual = 3.68617e-05, No Iterations 3
smoothSolver:  Solving for k, Initial residual = 0.00288491, Final residual = 0.000163776, No Iterations 3
ExecutionTime = 5.58 s  ClockTime = 5 s

forceCoeffs forceCoeffs output:
    Cm    = 0.0085269
    Cd    = 0.0970506
    Cl    = 0.143628
    Cl(f) = 0.0803408
    Cl(r) = 0.063287

nearWallFields near output:
    Sampling fields to 48
Time = 49

smoothSolver:  Solving for Ux, Initial residual = 0.00855101, Final residual = 0.000382137, No Iterations 2
smoothSolver:  Solving for Uz, Initial residual = 0.00561372, Final residual = 0.000229258, No Iterations 2
GAMG:  Solving for p, Initial residual = 0.0579418, Final residual = 0.000537979, No Iterations 15
time step continuity errors : sum local = 0.000117755, global = 1.76841e-07, cumulative = 2.09995e-06
smoothSolver:  Solving for omega, Initial residual = 0.00077841, Final residual = 3.81653e-05, No Iterations 3
smoothSolver:  Solving for k, Initial residual = 0.00274919, Final residual = 0.000158339, No Iterations 3
ExecutionTime = 5.69 s  ClockTime = 5 s

forceCoeffs forceCoeffs output:
    Cm    = 0.0110249
    Cd    = 0.101986
    Cl    = 0.148413
    Cl(f) = 0.0852316
    Cl(r) = 0.0631817

nearWallFields near output:
    Sampling fields to 49
Time = 50

smoothSolver:  Solving for Ux, Initial residual = 0.00865945, Final residual = 0.000400436, No Iterations 2
smoothSolver:  Solving for Uz, Initial residual = 0.00545045, Final residual = 0.000227952, No Iterations 2
GAMG:  Solving for p, Initial residual = 0.0562962, Final residual = 0.000515314, No Iterations 15
time step continuity errors : sum local = 0.000112947, global = -1.87032e-07, cumulative = 1.91292e-06
smoothSolver:  Solving for omega, Initial residual = 0.000760393, Final residual = 3.85669e-05, No Iterations 3
smoothSolver:  Solving for k, Initial residual = 0.0027568, Final residual = 0.000152627, No Iterations 3
ExecutionTime = 5.81 s  ClockTime = 6 s

forceCoeffs forceCoeffs output:
    Cm    = 0.0132541
    Cd    = 0.107915
    Cl    = 0.150802
    Cl(f) = 0.088655
    Cl(r) = 0.0621468

nearWallFields near output:
    Sampling fields to 50
Time = 51

smoothSolver:  Solving for Ux, Initial residual = 0.00871566, Final residual = 0.000412984, No Iterations 2
smoothSolver:  Solving for Uz, Initial residual = 0.00530167, Final residual = 0.000230302, No Iterations 2
GAMG:  Solving for p, Initial residual = 0.0545438, Final residual = 0.000528668, No Iterations 14
time step continuity errors : sum local = 0.000116093, global = 4.82569e-07, cumulative = 2.39548e-06
smoothSolver:  Solving for omega, Initial residual = 0.000727687, Final residual = 3.80747e-05, No Iterations 3
smoothSolver:  Solving for k, Initial residual = 0.00264163, Final residual = 0.000149386, No Iterations 3
ExecutionTime = 5.92 s  ClockTime = 6 s

forceCoeffs forceCoeffs output:
    Cm    = 0.0138788
    Cd    = 0.11502
    Cl    = 0.155971
    Cl(f) = 0.0918644
    Cl(r) = 0.0641069

nearWallFields near output:
    Sampling fields to 51
Time = 52

smoothSolver:  Solving for Ux, Initial residual = 0.00873795, Final residual = 0.000421408, No Iterations 2
smoothSolver:  Solving for Uz, Initial residual = 0.0051747, Final residual = 0.000232972, No Iterations 2
GAMG:  Solving for p, Initial residual = 0.0525787, Final residual = 0.000507552, No Iterations 14
time step continuity errors : sum local = 0.000111657, global = 3.17003e-07, cumulative = 2.71249e-06
smoothSolver:  Solving for omega, Initial residual = 0.000694976, Final residual = 3.76827e-05, No Iterations 3
smoothSolver:  Solving for k, Initial residual = 0.00260171, Final residual = 0.000152543, No Iterations 3
ExecutionTime = 6.05 s  ClockTime = 6 s

forceCoeffs forceCoeffs output:
    Cm    = 0.0143842
    Cd    = 0.122072
    Cl    = 0.161596
    Cl(f) = 0.0951824
    Cl(r) = 0.0664139

nearWallFields near output:
    Sampling fields to 52
Time = 53

smoothSolver:  Solving for Ux, Initial residual = 0.00852793, Final residual = 0.000422761, No Iterations 2
smoothSolver:  Solving for Uz, Initial residual = 0.0050479, Final residual = 0.0002336, No Iterations 2
GAMG:  Solving for p, Initial residual = 0.0503998, Final residual = 0.000456412, No Iterations 14
time step continuity errors : sum local = 0.000100551, global = 2.18841e-07, cumulative = 2.93133e-06
smoothSolver:  Solving for omega, Initial residual = 0.00067571, Final residual = 3.77679e-05, No Iterations 3
smoothSolver:  Solving for k, Initial residual = 0.00255959, Final residual = 0.00015373, No Iterations 3
ExecutionTime = 6.16 s  ClockTime = 6 s

forceCoeffs forceCoeffs output:
    Cm    = 0.0161621
    Cd    = 0.12813
    Cl    = 0.163145
    Cl(f) = 0.0977345
    Cl(r) = 0.0654104

nearWallFields near output:
    Sampling fields to 53
Time = 54

smoothSolver:  Solving for Ux, Initial residual = 0.00816559, Final residual = 0.00042049, No Iterations 2
smoothSolver:  Solving for Uz, Initial residual = 0.0049193, Final residual = 0.000233512, No Iterations 2
GAMG:  Solving for p, Initial residual = 0.0489528, Final residual = 0.000480477, No Iterations 13
time step continuity errors : sum local = 0.000106024, global = -1.74088e-07, cumulative = 2.75724e-06
smoothSolver:  Solving for omega, Initial residual = 0.000651138, Final residual = 3.72857e-05, No Iterations 3
smoothSolver:  Solving for k, Initial residual = 0.00248698, Final residual = 0.000153401, No Iterations 3
ExecutionTime = 6.26 s  ClockTime = 6 s

forceCoeffs forceCoeffs output:
    Cm    = 0.018006
    Cd    = 0.134099
    Cl    = 0.163832
    Cl(f) = 0.0999221
    Cl(r) = 0.0639102

nearWallFields near output:
    Sampling fields to 54
Time = 55

smoothSolver:  Solving for Ux, Initial residual = 0.00776356, Final residual = 0.000412234, No Iterations 2
smoothSolver:  Solving for Uz, Initial residual = 0.00479541, Final residual = 0.000233469, No Iterations 2
GAMG:  Solving for p, Initial residual = 0.0474574, Final residual = 0.00045425, No Iterations 13
time step continuity errors : sum local = 0.000100497, global = 2.23247e-07, cumulative = 2.98049e-06
smoothSolver:  Solving for omega, Initial residual = 0.000623363, Final residual = 3.68871e-05, No Iterations 3
smoothSolver:  Solving for k, Initial residual = 0.00242018, Final residual = 0.00015387, No Iterations 3
ExecutionTime = 6.41 s  ClockTime = 6 s

forceCoeffs forceCoeffs output:
    Cm    = 0.0187714
    Cd    = 0.140098
    Cl    = 0.166569
    Cl(f) = 0.102056
    Cl(r) = 0.064513

nearWallFields near output:
    Sampling fields to 55
Time = 56

smoothSolver:  Solving for Ux, Initial residual = 0.0073884, Final residual = 0.000401242, No Iterations 2
smoothSolver:  Solving for Uz, Initial residual = 0.00466723, Final residual = 0.000235181, No Iterations 2
GAMG:  Solving for p, Initial residual = 0.0460477, Final residual = 0.000425697, No Iterations 13
time step continuity errors : sum local = 9.4301e-05, global = 4.45403e-07, cumulative = 3.42589e-06
smoothSolver:  Solving for omega, Initial residual = 0.000597109, Final residual = 3.58962e-05, No Iterations 3
smoothSolver:  Solving for k, Initial residual = 0.00236224, Final residual = 0.000153015, No Iterations 3
ExecutionTime = 6.51 s  ClockTime = 6 s

forceCoeffs forceCoeffs output:
    Cm    = 0.0190127
    Cd    = 0.145192
    Cl    = 0.16958
    Cl(f) = 0.103803
    Cl(r) = 0.0657772

nearWallFields near output:
    Sampling fields to 56
Time = 57

smoothSolver:  Solving for Ux, Initial residual = 0.00704828, Final residual = 0.000389396, No Iterations 2
smoothSolver:  Solving for Uz, Initial residual = 0.0045605, Final residual = 0.000237707, No Iterations 2
GAMG:  Solving for p, Initial residual = 0.0448243, Final residual = 0.000393281, No Iterations 13
time step continuity errors : sum local = 8.71696e-05, global = 4.52474e-08, cumulative = 3.47114e-06
smoothSolver:  Solving for omega, Initial residual = 0.00057807, Final residual = 3.59004e-05, No Iterations 3
smoothSolver:  Solving for k, Initial residual = 0.00229292, Final residual = 0.000149823, No Iterations 3
ExecutionTime = 6.61 s  ClockTime = 6 s

forceCoeffs forceCoeffs output:
    Cm    = 0.0198026
    Cd    = 0.14936
    Cl    = 0.169984
    Cl(f) = 0.104794
    Cl(r) = 0.0651893

nearWallFields near output:
    Sampling fields to 57
Time = 58

smoothSolver:  Solving for Ux, Initial residual = 0.00670348, Final residual = 0.00037871, No Iterations 2
smoothSolver:  Solving for Uz, Initial residual = 0.00446705, Final residual = 0.000240676, No Iterations 2
GAMG:  Solving for p, Initial residual = 0.043692, Final residual = 0.000427443, No Iterations 12
time step continuity errors : sum local = 9.48073e-05, global = 8.26172e-07, cumulative = 4.29731e-06
smoothSolver:  Solving for omega, Initial residual = 0.000549789, Final residual = 3.45267e-05, No Iterations 3
smoothSolver:  Solving for k, Initial residual = 0.00220696, Final residual = 0.000146665, No Iterations 3
ExecutionTime = 6.69 s  ClockTime = 6 s

forceCoeffs forceCoeffs output:
    Cm    = 0.0208527
    Cd    = 0.153339
    Cl    = 0.169146
    Cl(f) = 0.105426
    Cl(r) = 0.0637204

nearWallFields near output:
    Sampling fields to 58
Time = 59

smoothSolver:  Solving for Ux, Initial residual = 0.00634322, Final residual = 0.000366042, No Iterations 2
smoothSolver:  Solving for Uz, Initial residual = 0.00439569, Final residual = 0.000244529, No Iterations 2
GAMG:  Solving for p, Initial residual = 0.0424088, Final residual = 0.0004236, No Iterations 12
time step continuity errors : sum local = 9.4156e-05, global = 8.34817e-07, cumulative = 5.13213e-06
smoothSolver:  Solving for omega, Initial residual = 0.000544661, Final residual = 3.43605e-05, No Iterations 3
smoothSolver:  Solving for k, Initial residual = 0.00213254, Final residual = 0.000142113, No Iterations 3
ExecutionTime = 6.77 s  ClockTime = 7 s

forceCoeffs forceCoeffs output:
    Cm    = 0.0215419
    Cd    = 0.158029
    Cl    = 0.169321
    Cl(f) = 0.106202
    Cl(r) = 0.0631185

nearWallFields near output:
    Sampling fields to 59
Time = 60

smoothSolver:  Solving for Ux, Initial residual = 0.00599109, Final residual = 0.000353197, No Iterations 2
smoothSolver:  Solving for Uz, Initial residual = 0.00432823, Final residual = 0.000248794, No Iterations 2
GAMG:  Solving for p, Initial residual = 0.0411336, Final residual = 0.000404805, No Iterations 12
time step continuity errors : sum local = 9.02358e-05, global = 4.67885e-07, cumulative = 5.60001e-06
smoothSolver:  Solving for omega, Initial residual = 0.000528698, Final residual = 3.41159e-05, No Iterations 3
smoothSolver:  Solving for k, Initial residual = 0.0020747, Final residual = 0.000136958, No Iterations 3
ExecutionTime = 6.86 s  ClockTime = 7 s

forceCoeffs forceCoeffs output:
    Cm    = 0.0214356
    Cd    = 0.163069
    Cl    = 0.171512
    Cl(f) = 0.107192
    Cl(r) = 0.0643203

nearWallFields near output:
    Sampling fields to 60
Time = 61

smoothSolver:  Solving for Ux, Initial residual = 0.00569003, Final residual = 0.00034229, No Iterations 2
smoothSolver:  Solving for Uz, Initial residual = 0.00426015, Final residual = 0.000253031, No Iterations 2
GAMG:  Solving for p, Initial residual = 0.0398501, Final residual = 0.000392386, No Iterations 12
time step continuity errors : sum local = 8.77202e-05, global = 7.53416e-08, cumulative = 5.67535e-06
smoothSolver:  Solving for omega, Initial residual = 0.000510253, Final residual = 3.29259e-05, No Iterations 3
smoothSolver:  Solving for k, Initial residual = 0.00197713, Final residual = 0.000131117, No Iterations 3
ExecutionTime = 6.96 s  ClockTime = 7 s

forceCoeffs forceCoeffs output:
    Cm    = 0.0208914
    Cd    = 0.168118
    Cl    = 0.174223
    Cl(f) = 0.108003
    Cl(r) = 0.06622

nearWallFields near output:
    Sampling fields to 61
Time = 62

smoothSolver:  Solving for Ux, Initial residual = 0.00541464, Final residual = 0.000331809, No Iterations 2
smoothSolver:  Solving for Uz, Initial residual = 0.0041814, Final residual = 0.000256119, No Iterations 2
GAMG:  Solving for p, Initial residual = 0.0389293, Final residual = 0.000375684, No Iterations 12
time step continuity errors : sum local = 8.42287e-05, global = -2.10398e-07, cumulative = 5.46496e-06
smoothSolver:  Solving for omega, Initial residual = 0.000498107, Final residual = 3.25661e-05, No Iterations 3
smoothSolver:  Solving for k, Initial residual = 0.00192575, Final residual = 0.000126226, No Iterations 3
ExecutionTime = 7.07 s  ClockTime = 7 s

forceCoeffs forceCoeffs output:
    Cm    = 0.0200369
    Cd    = 0.172994
    Cl    = 0.177509
    Cl(f) = 0.108792
    Cl(r) = 0.0687177

nearWallFields near output:
    Sampling fields to 62
Time = 63

smoothSolver:  Solving for Ux, Initial residual = 0.00516693, Final residual = 0.0003228, No Iterations 2
smoothSolver:  Solving for Uz, Initial residual = 0.00410099, Final residual = 0.000259087, No Iterations 2
GAMG:  Solving for p, Initial residual = 0.0377882, Final residual = 0.000373952, No Iterations 12
time step continuity errors : sum local = 8.40603e-05, global = -3.55351e-07, cumulative = 5.10961e-06
smoothSolver:  Solving for omega, Initial residual = 0.000487047, Final residual = 3.16721e-05, No Iterations 3
smoothSolver:  Solving for k, Initial residual = 0.00182784, Final residual = 0.000119122, No Iterations 3
ExecutionTime = 7.17 s  ClockTime = 7 s

forceCoeffs forceCoeffs output:
    Cm    = 0.0188799
    Cd    = 0.177816
    Cl    = 0.180869
    Cl(f) = 0.109314
    Cl(r) = 0.0715545

nearWallFields near output:
    Sampling fields to 63
Time = 64

smoothSolver:  Solving for Ux, Initial residual = 0.00493193, Final residual = 0.000313486, No Iterations 2
smoothSolver:  Solving for Uz, Initial residual = 0.00402393, Final residual = 0.000263174, No Iterations 2
GAMG:  Solving for p, Initial residual = 0.0363946, Final residual = 0.000323223, No Iterations 13
time step continuity errors : sum local = 7.28394e-05, global = 2.01313e-07, cumulative = 5.31092e-06
smoothSolver:  Solving for omega, Initial residual = 0.000472225, Final residual = 3.12862e-05, No Iterations 3
smoothSolver:  Solving for k, Initial residual = 0.00177935, Final residual = 0.000113474, No Iterations 3
ExecutionTime = 7.27 s  ClockTime = 7 s

forceCoeffs forceCoeffs output:
    Cm    = 0.0170225
    Cd    = 0.182702
    Cl    = 0.185977
    Cl(f) = 0.110011
    Cl(r) = 0.0759658

nearWallFields near output:
    Sampling fields to 64
Time = 65

smoothSolver:  Solving for Ux, Initial residual = 0.00471534, Final residual = 0.00030571, No Iterations 2
smoothSolver:  Solving for Uz, Initial residual = 0.0039604, Final residual = 0.000268601, No Iterations 2
GAMG:  Solving for p, Initial residual = 0.0350885, Final residual = 0.000332928, No Iterations 12
time step continuity errors : sum local = 7.5231e-05, global = 8.34628e-08, cumulative = 5.39438e-06
smoothSolver:  Solving for omega, Initial residual = 0.000458073, Final residual = 3.04149e-05, No Iterations 3
smoothSolver:  Solving for k, Initial residual = 0.00171859, Final residual = 0.000110175, No Iterations 3
ExecutionTime = 7.36 s  ClockTime = 7 s

forceCoeffs forceCoeffs output:
    Cm    = 0.0146646
    Cd    = 0.188143
    Cl    = 0.192349
    Cl(f) = 0.110839
    Cl(r) = 0.0815097

nearWallFields near output:
    Sampling fields to 65
Time = 66

smoothSolver:  Solving for Ux, Initial residual = 0.00450057, Final residual = 0.00029842, No Iterations 2
smoothSolver:  Solving for Uz, Initial residual = 0.00390548, Final residual = 0.000273763, No Iterations 2
GAMG:  Solving for p, Initial residual = 0.0333472, Final residual = 0.000306375, No Iterations 12
time step continuity errors : sum local = 6.93442e-05, global = 1.53366e-07, cumulative = 5.54775e-06
smoothSolver:  Solving for omega, Initial residual = 0.000452467, Final residual = 2.97294e-05, No Iterations 3
smoothSolver:  Solving for k, Initial residual = 0.00167683, Final residual = 0.000105886, No Iterations 3
ExecutionTime = 7.45 s  ClockTime = 7 s

forceCoeffs forceCoeffs output:
    Cm    = 0.0117453
    Cd    = 0.19406
    Cl    = 0.200477
    Cl(f) = 0.111984
    Cl(r) = 0.088493

nearWallFields near output:
    Sampling fields to 66
Time = 67

smoothSolver:  Solving for Ux, Initial residual = 0.00430021, Final residual = 0.000291482, No Iterations 2
smoothSolver:  Solving for Uz, Initial residual = 0.00386062, Final residual = 0.000278689, No Iterations 2
GAMG:  Solving for p, Initial residual = 0.0316463, Final residual = 0.000277482, No Iterations 12
time step continuity errors : sum local = 6.29091e-05, global = 1.26895e-07, cumulative = 5.67464e-06
smoothSolver:  Solving for omega, Initial residual = 0.000446453, Final residual = 2.92226e-05, No Iterations 3
smoothSolver:  Solving for k, Initial residual = 0.00162991, Final residual = 0.000102659, No Iterations 3
ExecutionTime = 7.54 s  ClockTime = 7 s

forceCoeffs forceCoeffs output:
    Cm    = 0.00836697
    Cd    = 0.200355
    Cl    = 0.21008
    Cl(f) = 0.113407
    Cl(r) = 0.0966728

nearWallFields near output:
    Sampling fields to 67
Time = 68

smoothSolver:  Solving for Ux, Initial residual = 0.00411564, Final residual = 0.00028568, No Iterations 2
smoothSolver:  Solving for Uz, Initial residual = 0.00381518, Final residual = 0.000283728, No Iterations 2
GAMG:  Solving for p, Initial residual = 0.030347, Final residual = 0.000260238, No Iterations 12
time step continuity errors : sum local = 5.91053e-05, global = 1.10925e-07, cumulative = 5.78557e-06
smoothSolver:  Solving for omega, Initial residual = 0.000443419, Final residual = 2.96237e-05, No Iterations 3
smoothSolver:  Solving for k, Initial residual = 0.00158991, Final residual = 9.90893e-05, No Iterations 3
ExecutionTime = 7.64 s  ClockTime = 7 s

forceCoeffs forceCoeffs output:
    Cm    = 0.00462014
    Cd    = 0.206998
    Cl    = 0.220691
    Cl(f) = 0.114965
    Cl(r) = 0.105725

nearWallFields near output:
    Sampling fields to 68
Time = 69

smoothSolver:  Solving for Ux, Initial residual = 0.00394486, Final residual = 0.000280272, No Iterations 2
smoothSolver:  Solving for Uz, Initial residual = 0.00376732, Final residual = 0.000289768, No Iterations 2
GAMG:  Solving for p, Initial residual = 0.0291375, Final residual = 0.000262512, No Iterations 12
time step continuity errors : sum local = 5.97538e-05, global = -1.63629e-07, cumulative = 5.62194e-06
smoothSolver:  Solving for omega, Initial residual = 0.000428614, Final residual = 2.91484e-05, No Iterations 3
smoothSolver:  Solving for k, Initial residual = 0.00154034, Final residual = 9.59856e-05, No Iterations 3
ExecutionTime = 7.72 s  ClockTime = 8 s

forceCoeffs forceCoeffs output:
    Cm    = 0.000528684
    Cd    = 0.214072
    Cl    = 0.232595
    Cl(f) = 0.116826
    Cl(r) = 0.115769

nearWallFields near output:
    Sampling fields to 69
Time = 70

smoothSolver:  Solving for Ux, Initial residual = 0.00378213, Final residual = 0.00027552, No Iterations 2
smoothSolver:  Solving for Uz, Initial residual = 0.00371435, Final residual = 0.000296423, No Iterations 2
GAMG:  Solving for p, Initial residual = 0.027679, Final residual = 0.000261419, No Iterations 12
time step continuity errors : sum local = 5.96226e-05, global = -2.92314e-07, cumulative = 5.32962e-06
smoothSolver:  Solving for omega, Initial residual = 0.000420395, Final residual = 2.83872e-05, No Iterations 3
smoothSolver:  Solving for k, Initial residual = 0.00150081, Final residual = 9.43889e-05, No Iterations 3
ExecutionTime = 7.81 s  ClockTime = 8 s

forceCoeffs forceCoeffs output:
    Cm    = -0.0039729
    Cd    = 0.221475
    Cl    = 0.24628
    Cl(f) = 0.119167
    Cl(r) = 0.127113

nearWallFields near output:
    Sampling fields to 70
Time = 71

smoothSolver:  Solving for Ux, Initial residual = 0.003633, Final residual = 0.000271519, No Iterations 2
smoothSolver:  Solving for Uz, Initial residual = 0.00366166, Final residual = 0.000302115, No Iterations 2
GAMG:  Solving for p, Initial residual = 0.0264804, Final residual = 0.000261821, No Iterations 12
time step continuity errors : sum local = 5.98312e-05, global = -2.23682e-07, cumulative = 5.10594e-06
smoothSolver:  Solving for omega, Initial residual = 0.000419064, Final residual = 2.86427e-05, No Iterations 3
smoothSolver:  Solving for k, Initial residual = 0.00148311, Final residual = 9.42462e-05, No Iterations 3
ExecutionTime = 7.9 s  ClockTime = 8 s

forceCoeffs forceCoeffs output:
    Cm    = -0.0088113
    Cd    = 0.229128
    Cl    = 0.261441
    Cl(f) = 0.121909
    Cl(r) = 0.139532

nearWallFields near output:
    Sampling fields to 71
Time = 72

smoothSolver:  Solving for Ux, Initial residual = 0.00349408, Final residual = 0.000268384, No Iterations 2
smoothSolver:  Solving for Uz, Initial residual = 0.00361362, Final residual = 0.000306767, No Iterations 2
GAMG:  Solving for p, Initial residual = 0.0255745, Final residual = 0.000254447, No Iterations 12
time step continuity errors : sum local = 5.82576e-05, global = -8.44024e-08, cumulative = 5.02154e-06
smoothSolver:  Solving for omega, Initial residual = 0.000424617, Final residual = 2.96135e-05, No Iterations 3
smoothSolver:  Solving for k, Initial residual = 0.00148276, Final residual = 9.39634e-05, No Iterations 3
ExecutionTime = 7.99 s  ClockTime = 8 s

forceCoeffs forceCoeffs output:
    Cm    = -0.0138614
    Cd    = 0.237047
    Cl    = 0.277628
    Cl(f) = 0.124952
    Cl(r) = 0.152675

nearWallFields near output:
    Sampling fields to 72
Time = 73

smoothSolver:  Solving for Ux, Initial residual = 0.00336454, Final residual = 0.000266184, No Iterations 2
smoothSolver:  Solving for Uz, Initial residual = 0.00357667, Final residual = 0.000311833, No Iterations 2
GAMG:  Solving for p, Initial residual = 0.0244232, Final residual = 0.000241189, No Iterations 12
time step continuity errors : sum local = 5.53335e-05, global = 1.28082e-08, cumulative = 5.03435e-06
smoothSolver:  Solving for omega, Initial residual = 0.000417542, Final residual = 2.99441e-05, No Iterations 3
smoothSolver:  Solving for k, Initial residual = 0.00146481, Final residual = 9.28746e-05, No Iterations 3
ExecutionTime = 8.07 s  ClockTime = 8 s

forceCoeffs forceCoeffs output:
    Cm    = -0.0190353
    Cd    = 0.245246
    Cl    = 0.294311
    Cl(f) = 0.12812
    Cl(r) = 0.166191

nearWallFields near output:
    Sampling fields to 73
Time = 74

smoothSolver:  Solving for Ux, Initial residual = 0.00324432, Final residual = 0.000264151, No Iterations 2
smoothSolver:  Solving for Uz, Initial residual = 0.00354254, Final residual = 0.000316902, No Iterations 2
GAMG:  Solving for p, Initial residual = 0.0232836, Final residual = 0.000227194, No Iterations 12
time step continuity errors : sum local = 5.22395e-05, global = 4.6805e-08, cumulative = 5.08115e-06
smoothSolver:  Solving for omega, Initial residual = 0.000407679, Final residual = 2.95991e-05, No Iterations 3
smoothSolver:  Solving for k, Initial residual = 0.00143434, Final residual = 9.24118e-05, No Iterations 3
ExecutionTime = 8.16 s  ClockTime = 8 s

forceCoeffs forceCoeffs output:
    Cm    = -0.0243676
    Cd    = 0.253691
    Cl    = 0.312043
    Cl(f) = 0.131654
    Cl(r) = 0.180389

nearWallFields near output:
    Sampling fields to 74
Time = 75

smoothSolver:  Solving for Ux, Initial residual = 0.00313211, Final residual = 0.000262541, No Iterations 2
smoothSolver:  Solving for Uz, Initial residual = 0.00350358, Final residual = 0.000321814, No Iterations 2
GAMG:  Solving for p, Initial residual = 0.0224735, Final residual = 0.000202763, No Iterations 12
time step continuity errors : sum local = 4.67507e-05, global = 1.93731e-08, cumulative = 5.10052e-06
smoothSolver:  Solving for omega, Initial residual = 0.000406247, Final residual = 2.99063e-05, No Iterations 3
smoothSolver:  Solving for k, Initial residual = 0.00142146, Final residual = 9.25645e-05, No Iterations 3
ExecutionTime = 8.26 s  ClockTime = 8 s

forceCoeffs forceCoeffs output:
    Cm    = -0.0300914
    Cd    = 0.26201
    Cl    = 0.331634
    Cl(f) = 0.135726
    Cl(r) = 0.195908

nearWallFields near output:
    Sampling fields to 75
Time = 76

smoothSolver:  Solving for Ux, Initial residual = 0.00303602, Final residual = 0.00026107, No Iterations 2
smoothSolver:  Solving for Uz, Initial residual = 0.00346642, Final residual = 0.000327061, No Iterations 2
GAMG:  Solving for p, Initial residual = 0.0218663, Final residual = 0.000191653, No Iterations 12
time step continuity errors : sum local = 4.43055e-05, global = -2.37644e-09, cumulative = 5.09815e-06
smoothSolver:  Solving for omega, Initial residual = 0.000413337, Final residual = 3.13492e-05, No Iterations 3
smoothSolver:  Solving for k, Initial residual = 0.00142528, Final residual = 9.34746e-05, No Iterations 3
ExecutionTime = 8.37 s  ClockTime = 8 s

forceCoeffs forceCoeffs output:
    Cm    = -0.0362137
    Cd    = 0.270076
    Cl    = 0.352803
    Cl(f) = 0.140188
    Cl(r) = 0.212615

nearWallFields near output:
    Sampling fields to 76
Time = 77

smoothSolver:  Solving for Ux, Initial residual = 0.00295358, Final residual = 0.000259649, No Iterations 2
smoothSolver:  Solving for Uz, Initial residual = 0.00343362, Final residual = 0.00033272, No Iterations 2
GAMG:  Solving for p, Initial residual = 0.0211286, Final residual = 0.000194086, No Iterations 12
time step continuity errors : sum local = 4.49902e-05, global = -3.88682e-08, cumulative = 5.05928e-06
smoothSolver:  Solving for omega, Initial residual = 0.000402775, Final residual = 3.07992e-05, No Iterations 3
smoothSolver:  Solving for k, Initial residual = 0.00141051, Final residual = 9.38348e-05, No Iterations 3
ExecutionTime = 8.46 s  ClockTime = 8 s

forceCoeffs forceCoeffs output:
    Cm    = -0.0425488
    Cd    = 0.277979
    Cl    = 0.374075
    Cl(f) = 0.144489
    Cl(r) = 0.229586

nearWallFields near output:
    Sampling fields to 77
Time = 78

smoothSolver:  Solving for Ux, Initial residual = 0.00287535, Final residual = 0.000258369, No Iterations 2
smoothSolver:  Solving for Uz, Initial residual = 0.00339655, Final residual = 0.000338361, No Iterations 2
GAMG:  Solving for p, Initial residual = 0.0205961, Final residual = 0.00019876, No Iterations 12
time step continuity errors : sum local = 4.62143e-05, global = -6.86849e-08, cumulative = 4.99059e-06
smoothSolver:  Solving for omega, Initial residual = 0.000401216, Final residual = 3.09384e-05, No Iterations 3
smoothSolver:  Solving for k, Initial residual = 0.00141234, Final residual = 9.52693e-05, No Iterations 3
ExecutionTime = 8.55 s  ClockTime = 8 s

forceCoeffs forceCoeffs output:
    Cm    = -0.0490961
    Cd    = 0.285913
    Cl    = 0.396092
    Cl(f) = 0.14895
    Cl(r) = 0.247142

nearWallFields near output:
    Sampling fields to 78
Time = 79

smoothSolver:  Solving for Ux, Initial residual = 0.00280263, Final residual = 0.000256881, No Iterations 2
smoothSolver:  Solving for Uz, Initial residual = 0.00335565, Final residual = 0.000167084, No Iterations 3
GAMG:  Solving for p, Initial residual = 0.0204889, Final residual = 0.000199542, No Iterations 12
time step continuity errors : sum local = 4.6552e-05, global = -2.42493e-08, cumulative = 4.96635e-06
smoothSolver:  Solving for omega, Initial residual = 0.000405885, Final residual = 3.18617e-05, No Iterations 3
smoothSolver:  Solving for k, Initial residual = 0.00143289, Final residual = 9.8222e-05, No Iterations 3
ExecutionTime = 8.62 s  ClockTime = 8 s

forceCoeffs forceCoeffs output:
    Cm    = -0.0559159
    Cd    = 0.30008
    Cl    = 0.419503
    Cl(f) = 0.153836
    Cl(r) = 0.265667

nearWallFields near output:
    Sampling fields to 79
Time = 80

smoothSolver:  Solving for Ux, Initial residual = 0.00276192, Final residual = 0.000258937, No Iterations 2
smoothSolver:  Solving for Uz, Initial residual = 0.00328105, Final residual = 0.00016417, No Iterations 3
GAMG:  Solving for p, Initial residual = 0.0204294, Final residual = 0.000188862, No Iterations 12
time step continuity errors : sum local = 4.42848e-05, global = -4.25717e-09, cumulative = 4.96209e-06
smoothSolver:  Solving for omega, Initial residual = 0.000405957, Final residual = 3.23143e-05, No Iterations 3
smoothSolver:  Solving for k, Initial residual = 0.00142871, Final residual = 0.000100613, No Iterations 3
ExecutionTime = 8.69 s  ClockTime = 9 s

forceCoeffs forceCoeffs output:
    Cm    = -0.0631965
    Cd    = 0.3123
    Cl    = 0.444483
    Cl(f) = 0.159045
    Cl(r) = 0.285438

nearWallFields near output:
    Sampling fields to 80
Time = 81

smoothSolver:  Solving for Ux, Initial residual = 0.00273872, Final residual = 0.000261482, No Iterations 2
smoothSolver:  Solving for Uz, Initial residual = 0.00324623, Final residual = 0.000163139, No Iterations 3
GAMG:  Solving for p, Initial residual = 0.0204146, Final residual = 0.000201004, No Iterations 11
time step continuity errors : sum local = 4.7231e-05, global = 2.92814e-10, cumulative = 4.96238e-06
smoothSolver:  Solving for omega, Initial residual = 0.000406445, Final residual = 3.27794e-05, No Iterations 3
smoothSolver:  Solving for k, Initial residual = 0.00143768, Final residual = 0.00010269, No Iterations 3
ExecutionTime = 8.75 s  ClockTime = 9 s

forceCoeffs forceCoeffs output:
    Cm    = -0.0709121
    Cd    = 0.319629
    Cl    = 0.471163
    Cl(f) = 0.164669
    Cl(r) = 0.306493

nearWallFields near output:
    Sampling fields to 81
Time = 82

smoothSolver:  Solving for Ux, Initial residual = 0.00271668, Final residual = 0.00026206, No Iterations 2
smoothSolver:  Solving for Uz, Initial residual = 0.00324722, Final residual = 0.000166386, No Iterations 3
GAMG:  Solving for p, Initial residual = 0.02031, Final residual = 0.000194573, No Iterations 11
time step continuity errors : sum local = 4.57517e-05, global = -6.01753e-09, cumulative = 4.95636e-06
smoothSolver:  Solving for omega, Initial residual = 0.000401379, Final residual = 3.27271e-05, No Iterations 3
smoothSolver:  Solving for k, Initial residual = 0.00145198, Final residual = 0.000104755, No Iterations 3
ExecutionTime = 8.81 s  ClockTime = 9 s

forceCoeffs forceCoeffs output:
    Cm    = -0.0788348
    Cd    = 0.32453
    Cl    = 0.49883
    Cl(f) = 0.17058
    Cl(r) = 0.32825

nearWallFields near output:
    Sampling fields to 82
Time = 83

smoothSolver:  Solving for Ux, Initial residual = 0.00267993, Final residual = 0.00026085, No Iterations 2
smoothSolver:  Solving for Uz, Initial residual = 0.00323857, Final residual = 0.000171261, No Iterations 3
GAMG:  Solving for p, Initial residual = 0.020176, Final residual = 0.000193589, No Iterations 11
time step continuity errors : sum local = 4.56764e-05, global = -5.18158e-09, cumulative = 4.95118e-06
smoothSolver:  Solving for omega, Initial residual = 0.000397944, Final residual = 3.24881e-05, No Iterations 3
smoothSolver:  Solving for k, Initial residual = 0.00145646, Final residual = 0.000106213, No Iterations 3
ExecutionTime = 8.89 s  ClockTime = 9 s

forceCoeffs forceCoeffs output:
    Cm    = -0.0868541
    Cd    = 0.329612
    Cl    = 0.52697
    Cl(f) = 0.176631
    Cl(r) = 0.350339

nearWallFields near output:
    Sampling fields to 83
Time = 84

smoothSolver:  Solving for Ux, Initial residual = 0.002633, Final residual = 0.000259231, No Iterations 2
smoothSolver:  Solving for Uz, Initial residual = 0.00321144, Final residual = 0.000175398, No Iterations 3
GAMG:  Solving for p, Initial residual = 0.0199055, Final residual = 0.000190069, No Iterations 11
time step continuity errors : sum local = 4.51205e-05, global = -7.01755e-09, cumulative = 4.94416e-06
smoothSolver:  Solving for omega, Initial residual = 0.000398283, Final residual = 3.25074e-05, No Iterations 3
smoothSolver:  Solving for k, Initial residual = 0.00146866, Final residual = 0.000108008, No Iterations 3
ExecutionTime = 8.98 s  ClockTime = 9 s

forceCoeffs forceCoeffs output:
    Cm    = -0.0952258
    Cd    = 0.33524
    Cl    = 0.556194
    Cl(f) = 0.182871
    Cl(r) = 0.373323

nearWallFields near output:
    Sampling fields to 84
Time = 85

smoothSolver:  Solving for Ux, Initial residual = 0.00259455, Final residual = 0.000258252, No Iterations 2
smoothSolver:  Solving for Uz, Initial residual = 0.00318698, Final residual = 0.000179008, No Iterations 3
GAMG:  Solving for p, Initial residual = 0.019584, Final residual = 0.000185456, No Iterations 11
time step continuity errors : sum local = 4.43e-05, global = -1.01672e-09, cumulative = 4.94315e-06
smoothSolver:  Solving for omega, Initial residual = 0.000400456, Final residual = 3.29576e-05, No Iterations 3
smoothSolver:  Solving for k, Initial residual = 0.00148469, Final residual = 0.000110593, No Iterations 3
ExecutionTime = 9.08 s  ClockTime = 9 s

forceCoeffs forceCoeffs output:
    Cm    = -0.103901
    Cd    = 0.341113
    Cl    = 0.586086
    Cl(f) = 0.189142
    Cl(r) = 0.396944

nearWallFields near output:
    Sampling fields to 85
Time = 86

smoothSolver:  Solving for Ux, Initial residual = 0.00257605, Final residual = 0.000126512, No Iterations 3
smoothSolver:  Solving for Uz, Initial residual = 0.00316832, Final residual = 0.000181756, No Iterations 3
GAMG:  Solving for p, Initial residual = 0.0196282, Final residual = 0.000194405, No Iterations 10
time step continuity errors : sum local = 4.66906e-05, global = -5.13912e-09, cumulative = 4.93801e-06
smoothSolver:  Solving for omega, Initial residual = 0.000397472, Final residual = 3.30453e-05, No Iterations 3
smoothSolver:  Solving for k, Initial residual = 0.00149737, Final residual = 0.000112934, No Iterations 3
ExecutionTime = 9.14 s  ClockTime = 9 s

forceCoeffs forceCoeffs output:
    Cm    = -0.114609
    Cd    = 0.339246
    Cl    = 0.623575
    Cl(f) = 0.197179
    Cl(r) = 0.426396

nearWallFields near output:
    Sampling fields to 86
Time = 87

smoothSolver:  Solving for Ux, Initial residual = 0.00257043, Final residual = 0.00025259, No Iterations 2
smoothSolver:  Solving for Uz, Initial residual = 0.00323252, Final residual = 0.000189466, No Iterations 3
GAMG:  Solving for p, Initial residual = 0.0194556, Final residual = 0.000180541, No Iterations 11
time step continuity errors : sum local = 4.33168e-05, global = 2.43798e-09, cumulative = 4.94045e-06
smoothSolver:  Solving for omega, Initial residual = 0.000399359, Final residual = 3.32961e-05, No Iterations 3
smoothSolver:  Solving for k, Initial residual = 0.00150636, Final residual = 0.000113078, No Iterations 3
ExecutionTime = 9.2 s  ClockTime = 9 s

forceCoeffs forceCoeffs output:
    Cm    = -0.123124
    Cd    = 0.347821
    Cl    = 0.65138
    Cl(f) = 0.202567
    Cl(r) = 0.448814

nearWallFields near output:
    Sampling fields to 87
Time = 88

smoothSolver:  Solving for Ux, Initial residual = 0.0025631, Final residual = 0.000255222, No Iterations 2
smoothSolver:  Solving for Uz, Initial residual = 0.00319719, Final residual = 0.000188945, No Iterations 3
GAMG:  Solving for p, Initial residual = 0.0192839, Final residual = 0.00018133, No Iterations 11
time step continuity errors : sum local = 4.39052e-05, global = -3.06861e-10, cumulative = 4.94014e-06
smoothSolver:  Solving for omega, Initial residual = 0.000400849, Final residual = 3.38142e-05, No Iterations 3
smoothSolver:  Solving for k, Initial residual = 0.00151465, Final residual = 0.000113694, No Iterations 3
ExecutionTime = 9.26 s  ClockTime = 9 s

forceCoeffs forceCoeffs output:
    Cm    = -0.131212
    Cd    = 0.358665
    Cl    = 0.677576
    Cl(f) = 0.207576
    Cl(r) = 0.47

nearWallFields near output:
    Sampling fields to 88
Time = 89

smoothSolver:  Solving for Ux, Initial residual = 0.0025608, Final residual = 0.000128905, No Iterations 3
smoothSolver:  Solving for Uz, Initial residual = 0.00314836, Final residual = 0.00018705, No Iterations 3
[...]
ExecutionTime = 94.03 s  ClockTime = 95 s

forceCoeffs forceCoeffs output:
    Cm    = 0.0415547
    Cd    = 0.183878
    Cl    = -0.185683
    Cl(f) = -0.0512868
    Cl(r) = -0.134396

nearWallFields near output:
    Sampling fields to 823
Time = 824

smoothSolver:  Solving for Ux, Initial residual = 0.00418375, Final residual = 0.000270239, No Iterations 2
smoothSolver:  Solving for Uz, Initial residual = 0.0120699, Final residual = 0.0010361, No Iterations 2
GAMG:  Solving for p, Initial residual = 0.0108019, Final residual = 0.000103972, No Iterations 28
time step continuity errors : sum local = 2.27631e-05, global = 3.8472e-08, cumulative = 6.09956e-06
smoothSolver:  Solving for omega, Initial residual = 0.000234812, Final residual = 1.53018e-05, No Iterations 3
smoothSolver:  Solving for k, Initial residual = 0.00111077, Final residual = 9.1881e-05, No Iterations 3
ExecutionTime = 94.18 s  ClockTime = 95 s

forceCoeffs forceCoeffs output:
    Cm    = 0.0429455
    Cd    = 0.182581
    Cl    = -0.191345
    Cl(f) = -0.052727
    Cl(r) = -0.138618

nearWallFields near output:
    Sampling fields to 824
Time = 825

smoothSolver:  Solving for Ux, Initial residual = 0.004229, Final residual = 0.000267796, No Iterations 2
smoothSolver:  Solving for Uz, Initial residual = 0.0119537, Final residual = 0.0010282, No Iterations 2
GAMG:  Solving for p, Initial residual = 0.0105557, Final residual = 9.88851e-05, No Iterations 28
time step continuity errors : sum local = 2.1602e-05, global = 3.6293e-08, cumulative = 6.13586e-06
smoothSolver:  Solving for omega, Initial residual = 0.000232082, Final residual = 1.49754e-05, No Iterations 3
smoothSolver:  Solving for k, Initial residual = 0.00110422, Final residual = 9.08099e-05, No Iterations 3
ExecutionTime = 94.32 s  ClockTime = 95 s

forceCoeffs forceCoeffs output:
    Cm    = 0.0443291
    Cd    = 0.181531
    Cl    = -0.197004
    Cl(f) = -0.0541732
    Cl(r) = -0.142831

nearWallFields near output:
    Sampling fields to 825
Time = 826

smoothSolver:  Solving for Ux, Initial residual = 0.00427426, Final residual = 0.000265542, No Iterations 2
smoothSolver:  Solving for Uz, Initial residual = 0.0118361, Final residual = 0.00102062, No Iterations 2
GAMG:  Solving for p, Initial residual = 0.0103975, Final residual = 0.000103177, No Iterations 27
time step continuity errors : sum local = 2.2496e-05, global = -4.11001e-08, cumulative = 6.09476e-06
smoothSolver:  Solving for omega, Initial residual = 0.000228847, Final residual = 1.469e-05, No Iterations 3
smoothSolver:  Solving for k, Initial residual = 0.00109618, Final residual = 8.93258e-05, No Iterations 3
ExecutionTime = 94.5 s  ClockTime = 96 s

forceCoeffs forceCoeffs output:
    Cm    = 0.0456896
    Cd    = 0.180726
    Cl    = -0.202577
    Cl(f) = -0.055599
    Cl(r) = -0.146978

nearWallFields near output:
    Sampling fields to 826
Time = 827

smoothSolver:  Solving for Ux, Initial residual = 0.00431377, Final residual = 0.000263593, No Iterations 2
smoothSolver:  Solving for Uz, Initial residual = 0.0117339, Final residual = 0.00101491, No Iterations 2
GAMG:  Solving for p, Initial residual = 0.0102152, Final residual = 0.000101366, No Iterations 26
time step continuity errors : sum local = 2.20648e-05, global = 2.27821e-08, cumulative = 6.11754e-06
smoothSolver:  Solving for omega, Initial residual = 0.000226092, Final residual = 1.44573e-05, No Iterations 3
smoothSolver:  Solving for k, Initial residual = 0.00108853, Final residual = 8.8133e-05, No Iterations 3
ExecutionTime = 94.65 s  ClockTime = 96 s

forceCoeffs forceCoeffs output:
    Cm    = 0.0469983
    Cd    = 0.180159
    Cl    = -0.207947
    Cl(f) = -0.0569753
    Cl(r) = -0.150972

nearWallFields near output:
    Sampling fields to 827
Time = 828

smoothSolver:  Solving for Ux, Initial residual = 0.00434975, Final residual = 0.00026206, No Iterations 2
smoothSolver:  Solving for Uz, Initial residual = 0.0116652, Final residual = 0.0010164, No Iterations 2
GAMG:  Solving for p, Initial residual = 0.0100351, Final residual = 9.84201e-05, No Iterations 26
time step continuity errors : sum local = 2.13946e-05, global = 3.04773e-08, cumulative = 6.14802e-06
smoothSolver:  Solving for omega, Initial residual = 0.000223305, Final residual = 1.42243e-05, No Iterations 3
smoothSolver:  Solving for k, Initial residual = 0.00108106, Final residual = 8.70721e-05, No Iterations 3
ExecutionTime = 94.78 s  ClockTime = 96 s

forceCoeffs forceCoeffs output:
    Cm    = 0.0482281
    Cd    = 0.179793
    Cl    = -0.213025
    Cl(f) = -0.0582844
    Cl(r) = -0.154741

nearWallFields near output:
    Sampling fields to 828
Time = 829

smoothSolver:  Solving for Ux, Initial residual = 0.00437925, Final residual = 0.000260691, No Iterations 2
smoothSolver:  Solving for Uz, Initial residual = 0.0116092, Final residual = 0.00101853, No Iterations 2
GAMG:  Solving for p, Initial residual = 0.00989137, Final residual = 9.72415e-05, No Iterations 26
time step continuity errors : sum local = 2.11188e-05, global = 3.40724e-08, cumulative = 6.18209e-06
smoothSolver:  Solving for omega, Initial residual = 0.000221978, Final residual = 1.40541e-05, No Iterations 3
smoothSolver:  Solving for k, Initial residual = 0.00107407, Final residual = 8.58545e-05, No Iterations 3
ExecutionTime = 94.91 s  ClockTime = 96 s

forceCoeffs forceCoeffs output:
    Cm    = 0.0493516
    Cd    = 0.179621
    Cl    = -0.217729
    Cl(f) = -0.059513
    Cl(r) = -0.158216

nearWallFields near output:
    Sampling fields to 829
Time = 830

smoothSolver:  Solving for Ux, Initial residual = 0.00440346, Final residual = 0.000259613, No Iterations 2
smoothSolver:  Solving for Uz, Initial residual = 0.0115561, Final residual = 0.00102061, No Iterations 2
GAMG:  Solving for p, Initial residual = 0.00980167, Final residual = 9.61203e-05, No Iterations 26
time step continuity errors : sum local = 2.08639e-05, global = 3.1756e-08, cumulative = 6.21384e-06
smoothSolver:  Solving for omega, Initial residual = 0.000220112, Final residual = 1.38855e-05, No Iterations 3
smoothSolver:  Solving for k, Initial residual = 0.00106662, Final residual = 8.461e-05, No Iterations 3
ExecutionTime = 95.03 s  ClockTime = 96 s

forceCoeffs forceCoeffs output:
    Cm    = 0.0503339
    Cd    = 0.179613
    Cl    = -0.221965
    Cl(f) = -0.0606486
    Cl(r) = -0.161316

nearWallFields near output:
    Sampling fields to 830
Time = 831

smoothSolver:  Solving for Ux, Initial residual = 0.00441873, Final residual = 0.000258654, No Iterations 2
smoothSolver:  Solving for Uz, Initial residual = 0.0115033, Final residual = 0.00102239, No Iterations 2
GAMG:  Solving for p, Initial residual = 0.00984545, Final residual = 9.42699e-05, No Iterations 26
time step continuity errors : sum local = 2.04577e-05, global = 2.88438e-08, cumulative = 6.24269e-06
smoothSolver:  Solving for omega, Initial residual = 0.000218392, Final residual = 1.37655e-05, No Iterations 3
smoothSolver:  Solving for k, Initial residual = 0.00105968, Final residual = 8.41127e-05, No Iterations 3
ExecutionTime = 95.13 s  ClockTime = 96 s

forceCoeffs forceCoeffs output:
    Cm    = 0.051148
    Cd    = 0.179699
    Cl    = -0.225642
    Cl(f) = -0.0616731
    Cl(r) = -0.163969

nearWallFields near output:
    Sampling fields to 831
Time = 832

smoothSolver:  Solving for Ux, Initial residual = 0.00442377, Final residual = 0.000257579, No Iterations 2
smoothSolver:  Solving for Uz, Initial residual = 0.0114625, Final residual = 0.00102426, No Iterations 2
GAMG:  Solving for p, Initial residual = 0.00984944, Final residual = 9.65052e-05, No Iterations 25
time step continuity errors : sum local = 2.09446e-05, global = -2.84334e-08, cumulative = 6.21426e-06
smoothSolver:  Solving for omega, Initial residual = 0.000217625, Final residual = 1.36775e-05, No Iterations 3
smoothSolver:  Solving for k, Initial residual = 0.00105605, Final residual = 8.41095e-05, No Iterations 3
ExecutionTime = 95.24 s  ClockTime = 96 s

forceCoeffs forceCoeffs output:
    Cm    = 0.0517834
    Cd    = 0.17985
    Cl    = -0.228729
    Cl(f) = -0.0625811
    Cl(r) = -0.166148

nearWallFields near output:
    Sampling fields to 832
Time = 833

smoothSolver:  Solving for Ux, Initial residual = 0.00441728, Final residual = 0.000257059, No Iterations 2
smoothSolver:  Solving for Uz, Initial residual = 0.0114214, Final residual = 0.00102988, No Iterations 2
GAMG:  Solving for p, Initial residual = 0.0098469, Final residual = 9.73494e-05, No Iterations 25
time step continuity errors : sum local = 2.11367e-05, global = 3.19364e-08, cumulative = 6.24619e-06
smoothSolver:  Solving for omega, Initial residual = 0.000217302, Final residual = 1.35575e-05, No Iterations 3
smoothSolver:  Solving for k, Initial residual = 0.00105474, Final residual = 8.44572e-05, No Iterations 3
ExecutionTime = 95.35 s  ClockTime = 97 s

forceCoeffs forceCoeffs output:
    Cm    = 0.0522167
    Cd    = 0.180046
    Cl    = -0.231161
    Cl(f) = -0.0633638
    Cl(r) = -0.167797

nearWallFields near output:
    Sampling fields to 833
Time = 834

smoothSolver:  Solving for Ux, Initial residual = 0.00440295, Final residual = 0.000256594, No Iterations 2
smoothSolver:  Solving for Uz, Initial residual = 0.0113931, Final residual = 0.00103631, No Iterations 2
GAMG:  Solving for p, Initial residual = 0.00987105, Final residual = 9.3064e-05, No Iterations 26
time step continuity errors : sum local = 2.02213e-05, global = -3.34855e-08, cumulative = 6.21271e-06
smoothSolver:  Solving for omega, Initial residual = 0.000217418, Final residual = 1.3544e-05, No Iterations 3
smoothSolver:  Solving for k, Initial residual = 0.00105543, Final residual = 8.47319e-05, No Iterations 3
ExecutionTime = 95.49 s  ClockTime = 97 s

forceCoeffs forceCoeffs output:
    Cm    = 0.0524153
    Cd    = 0.180279
    Cl    = -0.232816
    Cl(f) = -0.0639927
    Cl(r) = -0.168823

nearWallFields near output:
    Sampling fields to 834
Time = 835

smoothSolver:  Solving for Ux, Initial residual = 0.00437702, Final residual = 0.000255546, No Iterations 2
smoothSolver:  Solving for Uz, Initial residual = 0.0113684, Final residual = 0.00104061, No Iterations 2
GAMG:  Solving for p, Initial residual = 0.0098458, Final residual = 9.4982e-05, No Iterations 26
time step continuity errors : sum local = 2.0658e-05, global = -3.33467e-08, cumulative = 6.17936e-06
smoothSolver:  Solving for omega, Initial residual = 0.000217901, Final residual = 1.35466e-05, No Iterations 3
smoothSolver:  Solving for k, Initial residual = 0.00105737, Final residual = 8.51349e-05, No Iterations 3
ExecutionTime = 95.61 s  ClockTime = 97 s

forceCoeffs forceCoeffs output:
    Cm    = 0.0523847
    Cd    = 0.18053
    Cl    = -0.233725
    Cl(f) = -0.0644779
    Cl(r) = -0.169247

nearWallFields near output:
    Sampling fields to 835
Time = 836

smoothSolver:  Solving for Ux, Initial residual = 0.00433926, Final residual = 0.000253979, No Iterations 2
smoothSolver:  Solving for Uz, Initial residual = 0.0113544, Final residual = 0.00104555, No Iterations 2
GAMG:  Solving for p, Initial residual = 0.00982097, Final residual = 9.19547e-05, No Iterations 26
time step continuity errors : sum local = 2.00219e-05, global = -3.0956e-08, cumulative = 6.1484e-06
smoothSolver:  Solving for omega, Initial residual = 0.000218713, Final residual = 1.35818e-05, No Iterations 3
smoothSolver:  Solving for k, Initial residual = 0.0010589, Final residual = 8.52089e-05, No Iterations 3
ExecutionTime = 95.73 s  ClockTime = 97 s

forceCoeffs forceCoeffs output:
    Cm    = 0.0520961
    Cd    = 0.18078
    Cl    = -0.2338
    Cl(f) = -0.0648037
    Cl(r) = -0.168996

nearWallFields near output:
    Sampling fields to 836
Time = 837

smoothSolver:  Solving for Ux, Initial residual = 0.00429405, Final residual = 0.000252162, No Iterations 2
smoothSolver:  Solving for Uz, Initial residual = 0.0113461, Final residual = 0.00104886, No Iterations 2
GAMG:  Solving for p, Initial residual = 0.00980666, Final residual = 9.43772e-05, No Iterations 25
time step continuity errors : sum local = 2.05773e-05, global = 2.90254e-08, cumulative = 6.17743e-06
smoothSolver:  Solving for omega, Initial residual = 0.000219218, Final residual = 1.35993e-05, No Iterations 3
smoothSolver:  Solving for k, Initial residual = 0.0010608, Final residual = 8.52434e-05, No Iterations 3
ExecutionTime = 95.84 s  ClockTime = 97 s

forceCoeffs forceCoeffs output:
    Cm    = 0.0515539
    Cd    = 0.180947
    Cl    = -0.233073
    Cl(f) = -0.0649827
    Cl(r) = -0.168091

nearWallFields near output:
    Sampling fields to 837
Time = 838

smoothSolver:  Solving for Ux, Initial residual = 0.00424127, Final residual = 0.000250626, No Iterations 2
smoothSolver:  Solving for Uz, Initial residual = 0.0113614, Final residual = 0.00105567, No Iterations 2
GAMG:  Solving for p, Initial residual = 0.00984589, Final residual = 9.54745e-05, No Iterations 24
time step continuity errors : sum local = 2.08496e-05, global = -2.9869e-08, cumulative = 6.14756e-06
smoothSolver:  Solving for omega, Initial residual = 0.000220551, Final residual = 1.36392e-05, No Iterations 3
smoothSolver:  Solving for k, Initial residual = 0.00106248, Final residual = 8.51172e-05, No Iterations 3
ExecutionTime = 95.94 s  ClockTime = 97 s

forceCoeffs forceCoeffs output:
    Cm    = 0.0507864
    Cd    = 0.180972
    Cl    = -0.231623
    Cl(f) = -0.0650249
    Cl(r) = -0.166598

nearWallFields near output:
    Sampling fields to 838
Time = 839

smoothSolver:  Solving for Ux, Initial residual = 0.00418198, Final residual = 0.000249353, No Iterations 2
smoothSolver:  Solving for Uz, Initial residual = 0.0113682, Final residual = 0.00105924, No Iterations 2
GAMG:  Solving for p, Initial residual = 0.00988734, Final residual = 9.67288e-05, No Iterations 24
time step continuity errors : sum local = 2.11526e-05, global = -2.62621e-08, cumulative = 6.1213e-06
smoothSolver:  Solving for omega, Initial residual = 0.000222123, Final residual = 1.37061e-05, No Iterations 3
smoothSolver:  Solving for k, Initial residual = 0.00106418, Final residual = 8.50482e-05, No Iterations 3
ExecutionTime = 96.04 s  ClockTime = 97 s

forceCoeffs forceCoeffs output:
    Cm    = 0.04979
    Cd    = 0.180809
    Cl    = -0.229415
    Cl(f) = -0.0649175
    Cl(r) = -0.164497

nearWallFields near output:
    Sampling fields to 839
Time = 840

smoothSolver:  Solving for Ux, Initial residual = 0.0041153, Final residual = 0.000247383, No Iterations 2
smoothSolver:  Solving for Uz, Initial residual = 0.011374, Final residual = 0.0010607, No Iterations 2
GAMG:  Solving for p, Initial residual = 0.00995123, Final residual = 9.86493e-05, No Iterations 24
time step continuity errors : sum local = 2.16001e-05, global = -2.25802e-08, cumulative = 6.09872e-06
smoothSolver:  Solving for omega, Initial residual = 0.000223649, Final residual = 1.38065e-05, No Iterations 3
smoothSolver:  Solving for k, Initial residual = 0.00106696, Final residual = 8.50706e-05, No Iterations 3
ExecutionTime = 96.14 s  ClockTime = 97 s

forceCoeffs forceCoeffs output:
    Cm    = 0.0485648
    Cd    = 0.180468
    Cl    = -0.226428
    Cl(f) = -0.0646491
    Cl(r) = -0.161779

nearWallFields near output:
    Sampling fields to 840
Time = 841

smoothSolver:  Solving for Ux, Initial residual = 0.004043, Final residual = 0.000245174, No Iterations 2
smoothSolver:  Solving for Uz, Initial residual = 0.0113922, Final residual = 0.00105936, No Iterations 2
GAMG:  Solving for p, Initial residual = 0.0100229, Final residual = 9.86496e-05, No Iterations 24
time step continuity errors : sum local = 2.16291e-05, global = -1.94942e-08, cumulative = 6.07922e-06
smoothSolver:  Solving for omega, Initial residual = 0.000225583, Final residual = 1.38936e-05, No Iterations 3
smoothSolver:  Solving for k, Initial residual = 0.00107074, Final residual = 8.52338e-05, No Iterations 3
ExecutionTime = 96.28 s  ClockTime = 97 s

forceCoeffs forceCoeffs output:
    Cm    = 0.0471413
    Cd    = 0.179991
    Cl    = -0.222748
    Cl(f) = -0.0642325
    Cl(r) = -0.158515

nearWallFields near output:
    Sampling fields to 841
Time = 842

smoothSolver:  Solving for Ux, Initial residual = 0.00396586, Final residual = 0.000242825, No Iterations 2
smoothSolver:  Solving for Uz, Initial residual = 0.0114241, Final residual = 0.00106127, No Iterations 2
GAMG:  Solving for p, Initial residual = 0.0101418, Final residual = 9.75498e-05, No Iterations 24
time step continuity errors : sum local = 2.14194e-05, global = -1.68554e-08, cumulative = 6.06237e-06
smoothSolver:  Solving for omega, Initial residual = 0.000227734, Final residual = 1.39516e-05, No Iterations 3
smoothSolver:  Solving for k, Initial residual = 0.00107313, Final residual = 8.53778e-05, No Iterations 3
ExecutionTime = 96.42 s  ClockTime = 98 s

forceCoeffs forceCoeffs output:
    Cm    = 0.0455374
    Cd    = 0.179397
    Cl    = -0.218399
    Cl(f) = -0.063662
    Cl(r) = -0.154737

nearWallFields near output:
    Sampling fields to 842
Time = 843

smoothSolver:  Solving for Ux, Initial residual = 0.00388688, Final residual = 0.000240376, No Iterations 2
smoothSolver:  Solving for Uz, Initial residual = 0.0114578, Final residual = 0.00106164, No Iterations 2
GAMG:  Solving for p, Initial residual = 0.0102689, Final residual = 9.44723e-05, No Iterations 24
time step continuity errors : sum local = 2.07702e-05, global = -1.43314e-08, cumulative = 6.04804e-06
smoothSolver:  Solving for omega, Initial residual = 0.000230071, Final residual = 1.40321e-05, No Iterations 3
smoothSolver:  Solving for k, Initial residual = 0.001077, Final residual = 8.52561e-05, No Iterations 3
ExecutionTime = 96.55 s  ClockTime = 98 s

forceCoeffs forceCoeffs output:
    Cm    = 0.0437848
    Cd    = 0.178726
    Cl    = -0.213443
    Cl(f) = -0.0629367
    Cl(r) = -0.150506

nearWallFields near output:
    Sampling fields to 843
Time = 844

smoothSolver:  Solving for Ux, Initial residual = 0.00380679, Final residual = 0.000238583, No Iterations 2
smoothSolver:  Solving for Uz, Initial residual = 0.0114784, Final residual = 0.00105879, No Iterations 2
GAMG:  Solving for p, Initial residual = 0.0102892, Final residual = 0.000100991, No Iterations 23
time step continuity errors : sum local = 2.22314e-05, global = 1.53753e-08, cumulative = 6.06341e-06
smoothSolver:  Solving for omega, Initial residual = 0.0002323, Final residual = 1.41566e-05, No Iterations 3
smoothSolver:  Solving for k, Initial residual = 0.00108122, Final residual = 8.53186e-05, No Iterations 3
ExecutionTime = 96.69 s  ClockTime = 98 s

forceCoeffs forceCoeffs output:
    Cm    = 0.0419134
    Cd    = 0.178004
    Cl    = -0.207949
    Cl(f) = -0.062061
    Cl(r) = -0.145888

nearWallFields near output:
    Sampling fields to 844
Time = 845

smoothSolver:  Solving for Ux, Initial residual = 0.0037268, Final residual = 0.000236766, No Iterations 2
smoothSolver:  Solving for Uz, Initial residual = 0.0114912, Final residual = 0.0010513, No Iterations 2
GAMG:  Solving for p, Initial residual = 0.0103203, Final residual = 9.64544e-05, No Iterations 23
time step continuity errors : sum local = 2.12599e-05, global = 1.58352e-08, cumulative = 6.07925e-06
smoothSolver:  Solving for omega, Initial residual = 0.000235013, Final residual = 1.42944e-05, No Iterations 3
smoothSolver:  Solving for k, Initial residual = 0.00108674, Final residual = 8.54832e-05, No Iterations 3
ExecutionTime = 96.84 s  ClockTime = 98 s

forceCoeffs forceCoeffs output:
    Cm    = 0.0399766
    Cd    = 0.177327
    Cl    = -0.202047
    Cl(f) = -0.0610468
    Cl(r) = -0.141

nearWallFields near output:
    Sampling fields to 845
Time = 846

smoothSolver:  Solving for Ux, Initial residual = 0.00364517, Final residual = 0.000234522, No Iterations 2
smoothSolver:  Solving for Uz, Initial residual = 0.0115248, Final residual = 0.00105149, No Iterations 2
