/*---------------------------------------------------------------------------*\
| =========                 |                                                 |
| \\      /  F ield         | OpenFOAM: The Open Source CFD Toolbox           |
|  \\    /   O peration     | Version:  2.3.0                                 |
|   \\  /    A nd           | Web:      www.OpenFOAM.org                      |
|    \\/     M anipulation  |                                                 |
\*---------------------------------------------------------------------------*/
Build  : 2.3.0-f5222ca19ce6
Exec   : simpleFoam -parallel
Date   : May 23 2014
Time   : 21:42:06
Host   : "Alfonsos-MacBook-Pro.local"
PID    : 2746
Case   : /Users/fonso/C++/GAero/GAero/OF/tempCase1
nProcs : 2
Slaves : 1("Alfonsos-MacBook-Pro.local.2747")
Pstream initialized with:
    floatTransfer      : 0
    nProcsSimpleSum    : 0
    commsType          : nonBlocking
    polling iterations : 0
sigFpe : Enabling floating point exception trapping (FOAM_SIGFPE).
fileModificationChecking : Monitoring run-time modified files using timeStampMaster
allowSystemOperations : Disallowing user-supplied system call operations

// * * * * * * * * * * * * * * * * * * * * * * * * * * * * * * * * * * * * * //
Create time

Create mesh for time = 397

Reading field p

Reading field U

Reading/calculating face flux field phi

Selecting incompressible transport model Newtonian
Selecting RAS turbulence model kOmegaSST
kOmegaSSTCoeffs
{
    alphaK1         0.85034;
    alphaK2         1;
    alphaOmega1     0.5;
    alphaOmega2     0.85616;
    gamma1          0.5532;
    gamma2          0.4403;
    beta1           0.075;
    beta2           0.0828;
    betaStar        0.09;
    a1              0.31;
    b1              1;
    c1              10;
    F3              false;
}

No finite volume options present


SIMPLE: convergence criteria
    field p	 tolerance 1e-05
    field U	 tolerance 1e-05
    field nuTilda	 tolerance 1e-05


Starting time loop

forceCoeffs forceCoeffs:
    Not including porosity effects

Time = 398

smoothSolver:  Solving for Ux, Initial residual = 0.00246056, Final residual = 9.50954e-05, No Iterations 2
smoothSolver:  Solving for Uz, Initial residual = 0.000124613, Final residual = 6.38921e-06, No Iterations 1
GAMG:  Solving for p, Initial residual = 0.159295, Final residual = 0.00156839, No Iterations 35
time step continuity errors : sum local = 8.56494e-05, global = -9.3907e-09, cumulative = -9.3907e-09
smoothSolver:  Solving for omega, Initial residual = 0.000377629, Final residual = 1.66271e-05, No Iterations 2
smoothSolver:  Solving for k, Initial residual = 0.000447547, Final residual = 3.45379e-05, No Iterations 2
ExecutionTime = 0.63 s  ClockTime = 1 s

forceCoeffs forceCoeffs output:
    Cm    = -0.749688
    Cd    = 0.739061
    Cl    = 0.616106
    Cl(f) = -0.441635
    Cl(r) = 1.05774

Time = 399

smoothSolver:  Solving for Ux, Initial residual = 0.0698047, Final residual = 0.00232134, No Iterations 2
smoothSolver:  Solving for Uz, Initial residual = 0.124326, Final residual = 0.00436184, No Iterations 2
GAMG:  Solving for p, Initial residual = 0.180458, Final residual = 0.0016447, No Iterations 19
time step continuity errors : sum local = 0.000117363, global = 4.36412e-08, cumulative = 3.42505e-08
smoothSolver:  Solving for omega, Initial residual = 0.000290184, Final residual = 1.53408e-05, No Iterations 2
smoothSolver:  Solving for k, Initial residual = 0.000512151, Final residual = 3.74335e-05, No Iterations 2
ExecutionTime = 0.77 s  ClockTime = 1 s

forceCoeffs forceCoeffs output:
    Cm    = -0.694729
    Cd    = 0.74405
    Cl    = 0.623007
    Cl(f) = -0.383226
    Cl(r) = 1.00623

Time = 400

smoothSolver:  Solving for Ux, Initial residual = 0.033812, Final residual = 0.00113959, No Iterations 2
smoothSolver:  Solving for Uz, Initial residual = 0.096146, Final residual = 0.00362192, No Iterations 2
GAMG:  Solving for p, Initial residual = 0.189118, Final residual = 0.00186711, No Iterations 32
time step continuity errors : sum local = 0.000128115, global = 1.15275e-08, cumulative = 4.5778e-08
smoothSolver:  Solving for omega, Initial residual = 0.000246657, Final residual = 1.30988e-05, No Iterations 2
smoothSolver:  Solving for k, Initial residual = 0.000461055, Final residual = 3.73486e-05, No Iterations 2
ExecutionTime = 1.11 s  ClockTime = 1 s

forceCoeffs forceCoeffs output:
    Cm    = -0.106576
    Cd    = 0.169887
    Cl    = 0.614114
    Cl(f) = 0.200481
    Cl(r) = 0.413634

Time = 401

smoothSolver:  Solving for Ux, Initial residual = 0.0102325, Final residual = 0.000395268, No Iterations 2
smoothSolver:  Solving for Uz, Initial residual = 0.0347176, Final residual = 0.00327304, No Iterations 1
GAMG:  Solving for p, Initial residual = 0.271766, Final residual = 0.00265858, No Iterations 31
time step continuity errors : sum local = 0.000143916, global = 8.99507e-09, cumulative = 5.47731e-08
smoothSolver:  Solving for omega, Initial residual = 0.000245077, Final residual = 1.25694e-05, No Iterations 2
smoothSolver:  Solving for k, Initial residual = 0.000400428, Final residual = 3.1493e-05, No Iterations 2
ExecutionTime = 1.34 s  ClockTime = 2 s

forceCoeffs forceCoeffs output:
    Cm    = 0.324815
    Cd    = -0.306193
    Cl    = 0.574989
    Cl(f) = 0.61231
    Cl(r) = -0.0373205

Time = 402

smoothSolver:  Solving for Ux, Initial residual = 0.0126884, Final residual = 0.0012157, No Iterations 1
smoothSolver:  Solving for Uz, Initial residual = 0.0574518, Final residual = 0.00203316, No Iterations 2
GAMG:  Solving for p, Initial residual = 0.156755, Final residual = 0.00149343, No Iterations 20
time step continuity errors : sum local = 0.000179797, global = -1.04885e-08, cumulative = 4.42846e-08
smoothSolver:  Solving for omega, Initial residual = 0.00021994, Final residual = 1.10752e-05, No Iterations 2
smoothSolver:  Solving for k, Initial residual = 0.00038455, Final residual = 2.64386e-05, No Iterations 2
ExecutionTime = 1.48 s  ClockTime = 2 s

forceCoeffs forceCoeffs output:
    Cm    = 0.313543
    Cd    = -0.373722
    Cl    = 0.491362
    Cl(f) = 0.559224
    Cl(r) = -0.0678619

Time = 403

smoothSolver:  Solving for Ux, Initial residual = 0.0175279, Final residual = 0.00140433, No Iterations 1
smoothSolver:  Solving for Uz, Initial residual = 0.0705899, Final residual = 0.0022898, No Iterations 2
GAMG:  Solving for p, Initial residual = 0.130321, Final residual = 0.00113202, No Iterations 19
time step continuity errors : sum local = 0.000136085, global = 4.55196e-08, cumulative = 8.98042e-08
smoothSolver:  Solving for omega, Initial residual = 0.000204471, Final residual = 9.81618e-06, No Iterations 2
smoothSolver:  Solving for k, Initial residual = 0.000341667, Final residual = 2.42353e-05, No Iterations 2
ExecutionTime = 1.62 s  ClockTime = 2 s

forceCoeffs forceCoeffs output:
    Cm    = 0.0278362
    Cd    = -0.145462
    Cl    = 0.463248
    Cl(f) = 0.25946
    Cl(r) = 0.203788

Time = 404

smoothSolver:  Solving for Ux, Initial residual = 0.015187, Final residual = 0.00125365, No Iterations 1
smoothSolver:  Solving for Uz, Initial residual = 0.0410147, Final residual = 0.00356702, No Iterations 1
GAMG:  Solving for p, Initial residual = 0.188395, Final residual = 0.00185493, No Iterations 24
time step continuity errors : sum local = 0.000150698, global = -2.01595e-08, cumulative = 6.96447e-08
smoothSolver:  Solving for omega, Initial residual = 0.000167261, Final residual = 8.36085e-06, No Iterations 2
smoothSolver:  Solving for k, Initial residual = 0.000287086, Final residual = 2.18823e-05, No Iterations 2
ExecutionTime = 1.79 s  ClockTime = 2 s

forceCoeffs forceCoeffs output:
    Cm    = -0.220395
    Cd    = 0.104312
    Cl    = 0.547146
    Cl(f) = 0.0531779
    Cl(r) = 0.493968

Time = 405

smoothSolver:  Solving for Ux, Initial residual = 0.0124746, Final residual = 0.00108878, No Iterations 1
smoothSolver:  Solving for Uz, Initial residual = 0.03172, Final residual = 0.00114931, No Iterations 2
GAMG:  Solving for p, Initial residual = 0.377548, Final residual = 0.0037584, No Iterations 21
time step continuity errors : sum local = 0.000177718, global = 2.62888e-09, cumulative = 7.22736e-08
smoothSolver:  Solving for omega, Initial residual = 0.000161074, Final residual = 8.19281e-06, No Iterations 2
smoothSolver:  Solving for k, Initial residual = 0.000308679, Final residual = 2.1173e-05, No Iterations 2
ExecutionTime = 1.93 s  ClockTime = 2 s

forceCoeffs forceCoeffs output:
    Cm    = -0.253571
    Cd    = 0.19667
    Cl    = 0.650631
    Cl(f) = 0.0717446
    Cl(r) = 0.578886

Time = 406

smoothSolver:  Solving for Ux, Initial residual = 0.0125284, Final residual = 0.000917152, No Iterations 1
smoothSolver:  Solving for Uz, Initial residual = 0.0253109, Final residual = 0.00242473, No Iterations 1
GAMG:  Solving for p, Initial residual = 0.421727, Final residual = 0.00368919, No Iterations 16
time step continuity errors : sum local = 0.000134804, global = 3.35198e-08, cumulative = 1.05793e-07
smoothSolver:  Solving for omega, Initial residual = 0.000155129, Final residual = 8.05101e-06, No Iterations 2
smoothSolver:  Solving for k, Initial residual = 0.000317655, Final residual = 2.10766e-05, No Iterations 2
ExecutionTime = 2.08 s  ClockTime = 3 s

forceCoeffs forceCoeffs output:
    Cm    = -0.140788
    Cd    = 0.145286
    Cl    = 0.686689
    Cl(f) = 0.202556
    Cl(r) = 0.484133

Time = 407

smoothSolver:  Solving for Ux, Initial residual = 0.0100171, Final residual = 0.000819841, No Iterations 1
smoothSolver:  Solving for Uz, Initial residual = 0.0174773, Final residual = 0.00144344, No Iterations 1
GAMG:  Solving for p, Initial residual = 0.29512, Final residual = 0.00291555, No Iterations 19
time step continuity errors : sum local = 0.000147754, global = -4.86687e-08, cumulative = 5.71248e-08
smoothSolver:  Solving for omega, Initial residual = 0.000163885, Final residual = 8.83256e-06, No Iterations 2
smoothSolver:  Solving for k, Initial residual = 0.000347906, Final residual = 2.12247e-05, No Iterations 2
ExecutionTime = 2.25 s  ClockTime = 3 s

forceCoeffs forceCoeffs output:
    Cm    = -0.00849859
    Cd    = 0.038059
    Cl    = 0.598239
    Cl(f) = 0.290621
    Cl(r) = 0.307618

Time = 408

smoothSolver:  Solving for Ux, Initial residual = 0.00833998, Final residual = 0.000645498, No Iterations 1
smoothSolver:  Solving for Uz, Initial residual = 0.0154401, Final residual = 0.000455773, No Iterations 2
GAMG:  Solving for p, Initial residual = 0.231074, Final residual = 0.00223261, No Iterations 21
time step continuity errors : sum local = 0.000155502, global = -1.78499e-08, cumulative = 3.92749e-08
smoothSolver:  Solving for omega, Initial residual = 0.000160702, Final residual = 8.56312e-06, No Iterations 2
smoothSolver:  Solving for k, Initial residual = 0.000355365, Final residual = 2.13701e-05, No Iterations 2
ExecutionTime = 2.4 s  ClockTime = 3 s

forceCoeffs forceCoeffs output:
    Cm    = 0.0348435
    Cd    = -0.033519
    Cl    = 0.500869
    Cl(f) = 0.285278
    Cl(r) = 0.215591

Time = 409

smoothSolver:  Solving for Ux, Initial residual = 0.0091236, Final residual = 0.000613511, No Iterations 1
smoothSolver:  Solving for Uz, Initial residual = 0.0155254, Final residual = 0.00148809, No Iterations 1
GAMG:  Solving for p, Initial residual = 0.191167, Final residual = 0.00177968, No Iterations 18
time step continuity errors : sum local = 0.000136149, global = -1.02749e-08, cumulative = 2.9e-08
smoothSolver:  Solving for omega, Initial residual = 0.000151177, Final residual = 7.89757e-06, No Iterations 2
smoothSolver:  Solving for k, Initial residual = 0.000342213, Final residual = 2.20205e-05, No Iterations 2
ExecutionTime = 2.55 s  ClockTime = 3 s

forceCoeffs forceCoeffs output:
    Cm    = -0.00393691
    Cd    = -0.0432592
    Cl    = 0.483234
    Cl(f) = 0.23768
    Cl(r) = 0.245554

Time = 410

smoothSolver:  Solving for Ux, Initial residual = 0.00896967, Final residual = 0.000631084, No Iterations 1
smoothSolver:  Solving for Uz, Initial residual = 0.014461, Final residual = 0.00122154, No Iterations 1
GAMG:  Solving for p, Initial residual = 0.200418, Final residual = 0.00189244, No Iterations 15
time step continuity errors : sum local = 0.000135147, global = 2.22571e-08, cumulative = 5.12571e-08
smoothSolver:  Solving for omega, Initial residual = 0.000139825, Final residual = 7.5129e-06, No Iterations 2
smoothSolver:  Solving for k, Initial residual = 0.00033088, Final residual = 2.28143e-05, No Iterations 2
ExecutionTime = 2.66 s  ClockTime = 3 s

forceCoeffs forceCoeffs output:
    Cm    = -0.0700287
    Cd    = -0.0112326
    Cl    = 0.552107
    Cl(f) = 0.206025
    Cl(r) = 0.346082

Time = 411

smoothSolver:  Solving for Ux, Initial residual = 0.00774618, Final residual = 0.000551946, No Iterations 1
smoothSolver:  Solving for Uz, Initial residual = 0.0138746, Final residual = 0.00123378, No Iterations 1
GAMG:  Solving for p, Initial residual = 0.222491, Final residual = 0.00211262, No Iterations 19
time step continuity errors : sum local = 0.000133608, global = 1.19387e-08, cumulative = 6.31958e-08
smoothSolver:  Solving for omega, Initial residual = 0.000126876, Final residual = 7.21145e-06, No Iterations 2
smoothSolver:  Solving for k, Initial residual = 0.000328571, Final residual = 2.37299e-05, No Iterations 2
ExecutionTime = 2.8 s  ClockTime = 3 s

forceCoeffs forceCoeffs output:
    Cm    = -0.109081
    Cd    = 0.0270369
    Cl    = 0.628326
    Cl(f) = 0.205082
    Cl(r) = 0.423244

Time = 412

smoothSolver:  Solving for Ux, Initial residual = 0.006966, Final residual = 0.000509039, No Iterations 1
smoothSolver:  Solving for Uz, Initial residual = 0.0117048, Final residual = 0.00106777, No Iterations 1
GAMG:  Solving for p, Initial residual = 0.21845, Final residual = 0.0019826, No Iterations 19
time step continuity errors : sum local = 0.000119064, global = 8.59664e-09, cumulative = 7.17925e-08
smoothSolver:  Solving for omega, Initial residual = 0.000123844, Final residual = 7.23338e-06, No Iterations 2
smoothSolver:  Solving for k, Initial residual = 0.000339663, Final residual = 2.49778e-05, No Iterations 2
ExecutionTime = 2.96 s  ClockTime = 4 s

forceCoeffs forceCoeffs output:
    Cm    = -0.103603
    Cd    = 0.0483142
    Cl    = 0.643075
    Cl(f) = 0.217935
    Cl(r) = 0.42514

Time = 413

smoothSolver:  Solving for Ux, Initial residual = 0.00670589, Final residual = 0.000474756, No Iterations 1
smoothSolver:  Solving for Uz, Initial residual = 0.00932889, Final residual = 0.000803693, No Iterations 1
GAMG:  Solving for p, Initial residual = 0.209152, Final residual = 0.00203368, No Iterations 14
time step continuity errors : sum local = 0.000128387, global = 6.03358e-09, cumulative = 7.78261e-08
smoothSolver:  Solving for omega, Initial residual = 0.000122994, Final residual = 7.19847e-06, No Iterations 2
smoothSolver:  Solving for k, Initial residual = 0.000346063, Final residual = 2.58589e-05, No Iterations 2
ExecutionTime = 3.08 s  ClockTime = 4 s

forceCoeffs forceCoeffs output:
    Cm    = -0.0744878
    Cd    = 0.0495473
    Cl    = 0.60485
    Cl(f) = 0.227937
    Cl(r) = 0.376913

Time = 414

smoothSolver:  Solving for Ux, Initial residual = 0.00682547, Final residual = 0.000435232, No Iterations 1
smoothSolver:  Solving for Uz, Initial residual = 0.00892614, Final residual = 0.000785755, No Iterations 1
GAMG:  Solving for p, Initial residual = 0.194183, Final residual = 0.00180499, No Iterations 17
time step continuity errors : sum local = 0.000120242, global = -1.02714e-08, cumulative = 6.75547e-08
smoothSolver:  Solving for omega, Initial residual = 0.000119775, Final residual = 7.09594e-06, No Iterations 2
smoothSolver:  Solving for k, Initial residual = 0.0003424, Final residual = 2.6216e-05, No Iterations 2
ExecutionTime = 3.21 s  ClockTime = 4 s

forceCoeffs forceCoeffs output:
    Cm    = -0.0516685
    Cd    = 0.038582
    Cl    = 0.568891
    Cl(f) = 0.232777
    Cl(r) = 0.336114

Time = 415

smoothSolver:  Solving for Ux, Initial residual = 0.00694925, Final residual = 0.000426934, No Iterations 1
smoothSolver:  Solving for Uz, Initial residual = 0.00888639, Final residual = 0.000777028, No Iterations 1
GAMG:  Solving for p, Initial residual = 0.178156, Final residual = 0.00164018, No Iterations 19
time step continuity errors : sum local = 0.000109294, global = -7.88816e-09, cumulative = 5.96665e-08
smoothSolver:  Solving for omega, Initial residual = 0.00011251, Final residual = 6.85832e-06, No Iterations 2
smoothSolver:  Solving for k, Initial residual = 0.000337267, Final residual = 2.67447e-05, No Iterations 2
ExecutionTime = 3.36 s  ClockTime = 4 s

forceCoeffs forceCoeffs output:
    Cm    = -0.0489441
    Cd    = 0.024146
    Cl    = 0.568573
    Cl(f) = 0.235342
    Cl(r) = 0.333231

Time = 416

smoothSolver:  Solving for Ux, Initial residual = 0.00687676, Final residual = 0.000425492, No Iterations 1
smoothSolver:  Solving for Uz, Initial residual = 0.00843472, Final residual = 0.000693634, No Iterations 1
GAMG:  Solving for p, Initial residual = 0.184967, Final residual = 0.00169632, No Iterations 17
time step continuity errors : sum local = 0.000109617, global = -3.40101e-09, cumulative = 5.62655e-08
smoothSolver:  Solving for omega, Initial residual = 0.000106678, Final residual = 6.63554e-06, No Iterations 2
smoothSolver:  Solving for k, Initial residual = 0.000334321, Final residual = 2.71514e-05, No Iterations 2
ExecutionTime = 3.49 s  ClockTime = 4 s

forceCoeffs forceCoeffs output:
    Cm    = -0.0593732
    Cd    = 0.0128061
    Cl    = 0.59008
    Cl(f) = 0.235667
    Cl(r) = 0.354413

Time = 417

smoothSolver:  Solving for Ux, Initial residual = 0.00659866, Final residual = 0.00039651, No Iterations 1
smoothSolver:  Solving for Uz, Initial residual = 0.00812989, Final residual = 0.000646605, No Iterations 1
GAMG:  Solving for p, Initial residual = 0.183664, Final residual = 0.00165783, No Iterations 16
time step continuity errors : sum local = 0.000105264, global = -1.4037e-08, cumulative = 4.22285e-08
smoothSolver:  Solving for omega, Initial residual = 0.000103443, Final residual = 6.37826e-06, No Iterations 2
smoothSolver:  Solving for k, Initial residual = 0.000331916, Final residual = 2.74268e-05, No Iterations 2
ExecutionTime = 3.66 s  ClockTime = 5 s

forceCoeffs forceCoeffs output:
    Cm    = -0.0697572
    Cd    = 0.00952886
    Cl    = 0.603358
    Cl(f) = 0.231922
    Cl(r) = 0.371436

Time = 418

smoothSolver:  Solving for Ux, Initial residual = 0.00627764, Final residual = 0.000384309, No Iterations 1
smoothSolver:  Solving for Uz, Initial residual = 0.00787996, Final residual = 0.000666931, No Iterations 1
GAMG:  Solving for p, Initial residual = 0.169529, Final residual = 0.00164383, No Iterations 17
time step continuity errors : sum local = 0.000105214, global = -1.1626e-09, cumulative = 4.10659e-08
smoothSolver:  Solving for omega, Initial residual = 9.81496e-05, Final residual = 6.14487e-06, No Iterations 2
smoothSolver:  Solving for k, Initial residual = 0.000328024, Final residual = 2.74446e-05, No Iterations 2
ExecutionTime = 3.81 s  ClockTime = 5 s

forceCoeffs forceCoeffs output:
    Cm    = -0.0735306
    Cd    = 0.0157613
    Cl    = 0.598456
    Cl(f) = 0.225697
    Cl(r) = 0.372758

Time = 419

smoothSolver:  Solving for Ux, Initial residual = 0.00613713, Final residual = 0.00038955, No Iterations 1
smoothSolver:  Solving for Uz, Initial residual = 0.00734141, Final residual = 0.000641694, No Iterations 1
GAMG:  Solving for p, Initial residual = 0.165907, Final residual = 0.00164745, No Iterations 17
time step continuity errors : sum local = 0.00010939, global = 2.24157e-09, cumulative = 4.33075e-08
smoothSolver:  Solving for omega, Initial residual = 9.41659e-05, Final residual = 5.96265e-06, No Iterations 2
smoothSolver:  Solving for k, Initial residual = 0.000326675, Final residual = 2.70259e-05, No Iterations 2
ExecutionTime = 3.93 s  ClockTime = 5 s

forceCoeffs forceCoeffs output:
    Cm    = -0.0728665
    Cd    = 0.0273972
    Cl    = 0.590257
    Cl(f) = 0.222262
    Cl(r) = 0.367995

Time = 420

smoothSolver:  Solving for Ux, Initial residual = 0.0062471, Final residual = 0.000386336, No Iterations 1
smoothSolver:  Solving for Uz, Initial residual = 0.00687888, Final residual = 0.000576909, No Iterations 1
GAMG:  Solving for p, Initial residual = 0.159784, Final residual = 0.0014632, No Iterations 17
time step continuity errors : sum local = 9.92996e-05, global = -5.58586e-09, cumulative = 3.77216e-08
smoothSolver:  Solving for omega, Initial residual = 9.01251e-05, Final residual = 5.66667e-06, No Iterations 2
smoothSolver:  Solving for k, Initial residual = 0.000321975, Final residual = 2.63954e-05, No Iterations 2
ExecutionTime = 4.05 s  ClockTime = 5 s

forceCoeffs forceCoeffs output:
    Cm    = -0.0718728
    Cd    = 0.0363153
    Cl    = 0.593768
    Cl(f) = 0.225011
    Cl(r) = 0.368757

Time = 421

smoothSolver:  Solving for Ux, Initial residual = 0.00631551, Final residual = 0.000371909, No Iterations 1
smoothSolver:  Solving for Uz, Initial residual = 0.00668913, Final residual = 0.000547146, No Iterations 1
GAMG:  Solving for p, Initial residual = 0.146748, Final residual = 0.00141823, No Iterations 17
time step continuity errors : sum local = 9.52732e-05, global = -9.09124e-10, cumulative = 3.68125e-08
smoothSolver:  Solving for omega, Initial residual = 8.66435e-05, Final residual = 5.34001e-06, No Iterations 2
smoothSolver:  Solving for k, Initial residual = 0.000316748, Final residual = 2.58127e-05, No Iterations 2
ExecutionTime = 4.18 s  ClockTime = 5 s

forceCoeffs forceCoeffs output:
    Cm    = -0.0715668
    Cd    = 0.0364654
    Cl    = 0.606412
    Cl(f) = 0.231639
    Cl(r) = 0.374773

Time = 422

smoothSolver:  Solving for Ux, Initial residual = 0.00619975, Final residual = 0.000360596, No Iterations 1
smoothSolver:  Solving for Uz, Initial residual = 0.00662431, Final residual = 0.000543379, No Iterations 1
GAMG:  Solving for p, Initial residual = 0.15159, Final residual = 0.00146637, No Iterations 16
time step continuity errors : sum local = 9.60682e-05, global = 1.47541e-09, cumulative = 3.82879e-08
smoothSolver:  Solving for omega, Initial residual = 8.31734e-05, Final residual = 5.05284e-06, No Iterations 2
smoothSolver:  Solving for k, Initial residual = 0.000312374, Final residual = 2.52074e-05, No Iterations 2
ExecutionTime = 4.3 s  ClockTime = 5 s

forceCoeffs forceCoeffs output:
    Cm    = -0.0706502
    Cd    = 0.0288214
    Cl    = 0.61446
    Cl(f) = 0.23658
    Cl(r) = 0.37788

Time = 423

smoothSolver:  Solving for Ux, Initial residual = 0.0060461, Final residual = 0.000347262, No Iterations 1
smoothSolver:  Solving for Uz, Initial residual = 0.00657906, Final residual = 0.00052889, No Iterations 1
GAMG:  Solving for p, Initial residual = 0.152731, Final residual = 0.00142357, No Iterations 16
time step continuity errors : sum local = 9.18644e-05, global = -1.92725e-09, cumulative = 3.63606e-08
smoothSolver:  Solving for omega, Initial residual = 7.95163e-05, Final residual = 4.82523e-06, No Iterations 2
smoothSolver:  Solving for k, Initial residual = 0.000305883, Final residual = 2.45955e-05, No Iterations 2
ExecutionTime = 4.45 s  ClockTime = 6 s

forceCoeffs forceCoeffs output:
    Cm    = -0.0689028
    Cd    = 0.0202162
    Cl    = 0.61117
    Cl(f) = 0.236682
    Cl(r) = 0.374488

Time = 424

smoothSolver:  Solving for Ux, Initial residual = 0.00591583, Final residual = 0.000338068, No Iterations 1
smoothSolver:  Solving for Uz, Initial residual = 0.00650753, Final residual = 0.000530001, No Iterations 1
GAMG:  Solving for p, Initial residual = 0.143217, Final residual = 0.00132977, No Iterations 19
time step continuity errors : sum local = 8.55887e-05, global = 3.19231e-09, cumulative = 3.9553e-08
smoothSolver:  Solving for omega, Initial residual = 7.64984e-05, Final residual = 4.64147e-06, No Iterations 2
smoothSolver:  Solving for k, Initial residual = 0.000300413, Final residual = 2.38142e-05, No Iterations 2
ExecutionTime = 4.6 s  ClockTime = 6 s

forceCoeffs forceCoeffs output:
    Cm    = -0.0679111
    Cd    = 0.0170837
    Cl    = 0.603012
    Cl(f) = 0.233595
    Cl(r) = 0.369417

Time = 425

smoothSolver:  Solving for Ux, Initial residual = 0.00582674, Final residual = 0.00033687, No Iterations 1
smoothSolver:  Solving for Uz, Initial residual = 0.00634903, Final residual = 0.000532935, No Iterations 1
GAMG:  Solving for p, Initial residual = 0.138696, Final residual = 0.00127276, No Iterations 21
time step continuity errors : sum local = 8.37262e-05, global = -3.24879e-09, cumulative = 3.63042e-08
smoothSolver:  Solving for omega, Initial residual = 7.43111e-05, Final residual = 4.49053e-06, No Iterations 2
smoothSolver:  Solving for k, Initial residual = 0.000294046, Final residual = 2.29869e-05, No Iterations 2
ExecutionTime = 4.74 s  ClockTime = 6 s

forceCoeffs forceCoeffs output:
    Cm    = -0.0692437
    Cd    = 0.0204537
    Cl    = 0.60125
    Cl(f) = 0.231381
    Cl(r) = 0.369868

Time = 426

smoothSolver:  Solving for Ux, Initial residual = 0.00582854, Final residual = 0.000340607, No Iterations 1
smoothSolver:  Solving for Uz, Initial residual = 0.00610762, Final residual = 0.000520161, No Iterations 1
GAMG:  Solving for p, Initial residual = 0.135458, Final residual = 0.00134772, No Iterations 19
time step continuity errors : sum local = 9.11322e-05, global = -3.31959e-09, cumulative = 3.29846e-08
smoothSolver:  Solving for omega, Initial residual = 7.27701e-05, Final residual = 4.36084e-06, No Iterations 2
smoothSolver:  Solving for k, Initial residual = 0.000292583, Final residual = 2.24373e-05, No Iterations 2
ExecutionTime = 4.88 s  ClockTime = 6 s

forceCoeffs forceCoeffs output:
    Cm    = -0.0724049
    Cd    = 0.0260954
    Cl    = 0.609269
    Cl(f) = 0.232229
    Cl(r) = 0.377039

Time = 427

smoothSolver:  Solving for Ux, Initial residual = 0.0059214, Final residual = 0.000342221, No Iterations 1
smoothSolver:  Solving for Uz, Initial residual = 0.00594508, Final residual = 0.000509297, No Iterations 1
GAMG:  Solving for p, Initial residual = 0.124666, Final residual = 0.00121997, No Iterations 16
time step continuity errors : sum local = 8.33652e-05, global = 2.29144e-09, cumulative = 3.5276e-08
smoothSolver:  Solving for omega, Initial residual = 7.06551e-05, Final residual = 4.22503e-06, No Iterations 2
smoothSolver:  Solving for k, Initial residual = 0.000292551, Final residual = 2.21675e-05, No Iterations 2
ExecutionTime = 5.01 s  ClockTime = 6 s

forceCoeffs forceCoeffs output:
    Cm    = -0.0750168
    Cd    = 0.0290183
    Cl    = 0.62002
    Cl(f) = 0.234993
    Cl(r) = 0.385027

Time = 428

smoothSolver:  Solving for Ux, Initial residual = 0.00588239, Final residual = 0.000330943, No Iterations 1
smoothSolver:  Solving for Uz, Initial residual = 0.00596974, Final residual = 0.000503744, No Iterations 1
GAMG:  Solving for p, Initial residual = 0.121341, Final residual = 0.00118738, No Iterations 18
time step continuity errors : sum local = 7.99918e-05, global = -1.2499e-08, cumulative = 2.2777e-08
smoothSolver:  Solving for omega, Initial residual = 6.82536e-05, Final residual = 4.04893e-06, No Iterations 2
smoothSolver:  Solving for k, Initial residual = 0.000290182, Final residual = 2.19102e-05, No Iterations 2
ExecutionTime = 5.15 s  ClockTime = 6 s

forceCoeffs forceCoeffs output:
    Cm    = -0.0755827
    Cd    = 0.0279597
    Cl    = 0.626073
    Cl(f) = 0.237454
    Cl(r) = 0.388619

Time = 429

smoothSolver:  Solving for Ux, Initial residual = 0.00578156, Final residual = 0.000328117, No Iterations 1
smoothSolver:  Solving for Uz, Initial residual = 0.00601382, Final residual = 0.000488555, No Iterations 1
GAMG:  Solving for p, Initial residual = 0.125685, Final residual = 0.00118481, No Iterations 20
time step continuity errors : sum local = 7.81723e-05, global = -2.80863e-09, cumulative = 1.99684e-08
smoothSolver:  Solving for omega, Initial residual = 6.61247e-05, Final residual = 3.86465e-06, No Iterations 2
smoothSolver:  Solving for k, Initial residual = 0.000286943, Final residual = 2.15055e-05, No Iterations 2
ExecutionTime = 5.3 s  ClockTime = 6 s

forceCoeffs forceCoeffs output:
    Cm    = -0.0745316
    Cd    = 0.0251753
    Cl    = 0.626355
    Cl(f) = 0.238646
    Cl(r) = 0.387709

Time = 430

smoothSolver:  Solving for Ux, Initial residual = 0.00567329, Final residual = 0.000328115, No Iterations 1
smoothSolver:  Solving for Uz, Initial residual = 0.00596935, Final residual = 0.000472036, No Iterations 1
GAMG:  Solving for p, Initial residual = 0.123553, Final residual = 0.00117056, No Iterations 21
time step continuity errors : sum local = 7.59952e-05, global = -2.3736e-08, cumulative = -3.76763e-09
smoothSolver:  Solving for omega, Initial residual = 6.40317e-05, Final residual = 3.69698e-06, No Iterations 2
smoothSolver:  Solving for k, Initial residual = 0.000280897, Final residual = 2.10227e-05, No Iterations 2
ExecutionTime = 5.45 s  ClockTime = 7 s

forceCoeffs forceCoeffs output:
    Cm    = -0.0734006
    Cd    = 0.0234668
    Cl    = 0.625413
    Cl(f) = 0.239306
    Cl(r) = 0.386107

Time = 431

smoothSolver:  Solving for Ux, Initial residual = 0.00558647, Final residual = 0.000323172, No Iterations 1
smoothSolver:  Solving for Uz, Initial residual = 0.00586949, Final residual = 0.000464495, No Iterations 1
GAMG:  Solving for p, Initial residual = 0.117068, Final residual = 0.00115543, No Iterations 19
time step continuity errors : sum local = 7.5113e-05, global = -4.12873e-08, cumulative = -4.50549e-08
smoothSolver:  Solving for omega, Initial residual = 6.32233e-05, Final residual = 3.62098e-06, No Iterations 2
smoothSolver:  Solving for k, Initial residual = 0.000279129, Final residual = 2.08822e-05, No Iterations 2
ExecutionTime = 5.6 s  ClockTime = 7 s

forceCoeffs forceCoeffs output:
    Cm    = -0.0733371
    Cd    = 0.0236527
    Cl    = 0.627598
    Cl(f) = 0.240462
    Cl(r) = 0.387136

Time = 432

smoothSolver:  Solving for Ux, Initial residual = 0.00557278, Final residual = 0.000319782, No Iterations 1
smoothSolver:  Solving for Uz, Initial residual = 0.00574743, Final residual = 0.000467721, No Iterations 1
GAMG:  Solving for p, Initial residual = 0.112816, Final residual = 0.00107009, No Iterations 21
time step continuity errors : sum local = 7.08959e-05, global = -1.47665e-08, cumulative = -5.98215e-08
smoothSolver:  Solving for omega, Initial residual = 6.30569e-05, Final residual = 3.59175e-06, No Iterations 2
smoothSolver:  Solving for k, Initial residual = 0.000279469, Final residual = 2.09875e-05, No Iterations 2
ExecutionTime = 5.74 s  ClockTime = 7 s

forceCoeffs forceCoeffs output:
    Cm    = -0.0741273
    Cd    = 0.0244198
    Cl    = 0.632456
    Cl(f) = 0.2421
    Cl(r) = 0.390355

Time = 433

smoothSolver:  Solving for Ux, Initial residual = 0.00564884, Final residual = 0.000321395, No Iterations 1
smoothSolver:  Solving for Uz, Initial residual = 0.00568104, Final residual = 0.000470225, No Iterations 1
GAMG:  Solving for p, Initial residual = 0.108638, Final residual = 0.00108457, No Iterations 21
time step continuity errors : sum local = 7.31331e-05, global = 3.64933e-08, cumulative = -2.33282e-08
smoothSolver:  Solving for omega, Initial residual = 6.17499e-05, Final residual = 3.57782e-06, No Iterations 2
smoothSolver:  Solving for k, Initial residual = 0.000279746, Final residual = 2.13163e-05, No Iterations 2
ExecutionTime = 5.9 s  ClockTime = 7 s

forceCoeffs forceCoeffs output:
    Cm    = -0.0751207
    Cd    = 0.0244414
    Cl    = 0.637278
    Cl(f) = 0.243518
    Cl(r) = 0.39376

Time = 434

smoothSolver:  Solving for Ux, Initial residual = 0.00568109, Final residual = 0.000325185, No Iterations 1
smoothSolver:  Solving for Uz, Initial residual = 0.00568573, Final residual = 0.000461799, No Iterations 1
GAMG:  Solving for p, Initial residual = 0.105249, Final residual = 0.000989366, No Iterations 22
time step continuity errors : sum local = 6.68409e-05, global = -5.50471e-08, cumulative = -7.83753e-08
smoothSolver:  Solving for omega, Initial residual = 5.9323e-05, Final residual = 3.54103e-06, No Iterations 2
smoothSolver:  Solving for k, Initial residual = 0.000279001, Final residual = 2.16646e-05, No Iterations 2
ExecutionTime = 6.07 s  ClockTime = 7 s

forceCoeffs forceCoeffs output:
    Cm    = -0.0759056
    Cd    = 0.0236554
    Cl    = 0.640455
    Cl(f) = 0.244322
    Cl(r) = 0.396133

Time = 435

smoothSolver:  Solving for Ux, Initial residual = 0.00560608, Final residual = 0.000329679, No Iterations 1
smoothSolver:  Solving for Uz, Initial residual = 0.00573371, Final residual = 0.000449281, No Iterations 1
GAMG:  Solving for p, Initial residual = 0.102986, Final residual = 0.00102865, No Iterations 21
time step continuity errors : sum local = 6.86629e-05, global = -9.79544e-08, cumulative = -1.7633e-07
smoothSolver:  Solving for omega, Initial residual = 5.644e-05, Final residual = 3.46124e-06, No Iterations 2
smoothSolver:  Solving for k, Initial residual = 0.000276691, Final residual = 2.19772e-05, No Iterations 2
ExecutionTime = 6.22 s  ClockTime = 8 s

forceCoeffs forceCoeffs output:
    Cm    = -0.0765013
    Cd    = 0.0230029
    Cl    = 0.642866
    Cl(f) = 0.244932
    Cl(r) = 0.397934

Time = 436

smoothSolver:  Solving for Ux, Initial residual = 0.00549854, Final residual = 0.000329477, No Iterations 1
smoothSolver:  Solving for Uz, Initial residual = 0.00577799, Final residual = 0.00044287, No Iterations 1
