/*---------------------------------------------------------------------------*\
| =========                 |                                                 |
| \\      /  F ield         | OpenFOAM: The Open Source CFD Toolbox           |
|  \\    /   O peration     | Version:  2.3.0                                 |
|   \\  /    A nd           | Web:      www.OpenFOAM.org                      |
|    \\/     M anipulation  |                                                 |
\*---------------------------------------------------------------------------*/
Build  : 2.3.0-f5222ca19ce6
Exec   : simpleFoam -parallel
Date   : Apr 01 2014
Time   : 11:45:08
Host   : "linux-agh8.site"
PID    : 4448
Case   : /home/fonso/OpenFOAM/fonso-2.3.0/run/NACABCN
nProcs : 2
Slaves : 1("linux-agh8.site.4449")
Pstream initialized with:
    floatTransfer      : 0
    nProcsSimpleSum    : 0
    commsType          : nonBlocking
    polling iterations : 0
sigFpe : Enabling floating point exception trapping (FOAM_SIGFPE).
fileModificationChecking : Monitoring run-time modified files using timeStampMaster
allowSystemOperations : Disallowing user-supplied system call operations

// * * * * * * * * * * * * * * * * * * * * * * * * * * * * * * * * * * * * * //
Create time

Create mesh for time = 0

Reading field p

Reading field U

Reading/calculating face flux field phi

Selecting incompressible transport model Newtonian
Selecting RAS turbulence model kOmegaSST
kOmegaSSTCoeffs
{
    alphaK1         0.85034;
    alphaK2         1;
    alphaOmega1     0.5;
    alphaOmega2     0.85616;
    gamma1          0.5532;
    gamma2          0.4403;
    beta1           0.075;
    beta2           0.0828;
    betaStar        0.09;
    a1              0.31;
    b1              1;
    c1              10;
    F3              false;
}

No finite volume options present


SIMPLE: convergence criteria
    field p	 tolerance 1e-05
    field U	 tolerance 1e-05
    field nuTilda	 tolerance 1e-05


Starting time loop

forces forceCoeffs1:
    Not including porosity effects

forceCoeffs forceCoeffs:
    Not including porosity effects

nearWallFields near: Sampling 1 fields
Time = 1

smoothSolver:  Solving for Ux, Initial residual = 0.032918, Final residual = 0.000978293, No Iterations 1
smoothSolver:  Solving for Uz, Initial residual = 0.0745987, Final residual = 0.00109495, No Iterations 1
GAMG:  Solving for p, Initial residual = 1, Final residual = 0.00948166, No Iterations 23
time step continuity errors : sum local = 0.000114674, global = -6.29416e-09, cumulative = -6.29416e-09
smoothSolver:  Solving for omega, Initial residual = 0.00210354, Final residual = 0.000160029, No Iterations 3
smoothSolver:  Solving for k, Initial residual = 1, Final residual = 0.0174766, No Iterations 1
ExecutionTime = 0.33 s  ClockTime = 0 s

forces forceCoeffs1 output:
    sum of forces:
        pressure : (122.439 7.33367e-19 326.843)
        viscous  : (5.16845 5.73333e-21 0.044019)
        porous   : (0 0 0)
    sum of moments:
        pressure : (-163.422 117.258 61.2196)
        viscous  : (-0.0220095 -0.0023682 2.58423)
        porous   : (0 0 0)

forceCoeffs forceCoeffs output:
    Cm    = 0.0234511
    Cd    = 0.0289082
    Cl    = 0.0639521
    Cl(f) = 0.0554272
    Cl(r) = 0.00852496

nearWallFields near: Creating 1 fields
    created UNear to sample U

nearWallFields near output:
    Sampling fields to 1
Time = 2

smoothSolver:  Solving for Ux, Initial residual = 0.0261092, Final residual = 0.0005784, No Iterations 1
smoothSolver:  Solving for Uz, Initial residual = 0.0457668, Final residual = 0.000900635, No Iterations 1
GAMG:  Solving for p, Initial residual = 0.234044, Final residual = 0.00226584, No Iterations 25
time step continuity errors : sum local = 9.12216e-05, global = -3.11463e-08, cumulative = -3.74404e-08
smoothSolver:  Solving for omega, Initial residual = 0.00128411, Final residual = 9.40576e-05, No Iterations 3
smoothSolver:  Solving for k, Initial residual = 0.122796, Final residual = 0.00253983, No Iterations 1
ExecutionTime = 0.49 s  ClockTime = 0 s

forces forceCoeffs1 output:
    sum of forces:
        pressure : (135.357 6.94255e-19 648.855)
        viscous  : (5.13936 8.67257e-21 0.048698)
        porous   : (0 0 0)
    sum of moments:
        pressure : (-324.428 199.469 67.6784)
        viscous  : (-0.024349 -0.00089367 2.56968)
        porous   : (0 0 0)

forceCoeffs forceCoeffs output:
    Cm    = 0.0398936
    Cd    = 0.0348529
    Cl    = 0.128132
    Cl(f) = 0.10396
    Cl(r) = 0.0241726

nearWallFields near output:
    Sampling fields to 2
Time = 3

smoothSolver:  Solving for Ux, Initial residual = 0.0258441, Final residual = 0.000555898, No Iterations 1
smoothSolver:  Solving for Uz, Initial residual = 0.0379346, Final residual = 0.000942339, No Iterations 1
GAMG:  Solving for p, Initial residual = 0.129089, Final residual = 0.00127982, No Iterations 13
time step continuity errors : sum local = 8.15195e-05, global = 6.25827e-08, cumulative = 2.51423e-08
smoothSolver:  Solving for omega, Initial residual = 0.0010799, Final residual = 6.88122e-05, No Iterations 3
smoothSolver:  Solving for k, Initial residual = 0.0431506, Final residual = 0.00104316, No Iterations 1
ExecutionTime = 0.58 s  ClockTime = 0 s

forces forceCoeffs1 output:
    sum of forces:
        pressure : (9.7431 -6.54066e-20 672.389)
        viscous  : (5.08978 6.05201e-21 0.0519713)
        porous   : (0 0 0)
    sum of moments:
        pressure : (-336.195 203.383 4.87155)
        viscous  : (-0.0259856 -0.00121519 2.54489)
        porous   : (0 0 0)

forceCoeffs forceCoeffs output:
    Cm    = 0.0406763
    Cd    = 0.0100011
    Cl    = 0.134149
    Cl(f) = 0.107751
    Cl(r) = 0.026398

nearWallFields near output:
    Sampling fields to 3
Time = 4

smoothSolver:  Solving for Ux, Initial residual = 0.0253472, Final residual = 0.00060742, No Iterations 1
smoothSolver:  Solving for Uz, Initial residual = 0.032864, Final residual = 0.000910803, No Iterations 1
GAMG:  Solving for p, Initial residual = 0.132712, Final residual = 0.00128748, No Iterations 23
time step continuity errors : sum local = 8.27184e-05, global = 2.56574e-09, cumulative = 2.77081e-08
smoothSolver:  Solving for omega, Initial residual = 0.000915844, Final residual = 8.99902e-05, No Iterations 2
smoothSolver:  Solving for k, Initial residual = 0.0201676, Final residual = 0.000585172, No Iterations 1
ExecutionTime = 0.69 s  ClockTime = 1 s

forces forceCoeffs1 output:
    sum of forces:
        pressure : (-96.1149 -6.29983e-19 470.971)
        viscous  : (5.04054 1.84545e-21 0.0506512)
        porous   : (0 0 0)
    sum of moments:
        pressure : (-235.485 155.782 -48.0575)
        viscous  : (-0.0253256 -0.001983 2.52027)
        porous   : (0 0 0)

forceCoeffs forceCoeffs output:
    Cm    = 0.031156
    Cd    = -0.0132596
    Cl    = 0.0950285
    Cl(f) = 0.0786702
    Cl(r) = 0.0163582

nearWallFields near output:
    Sampling fields to 4
Time = 5

smoothSolver:  Solving for Ux, Initial residual = 0.0237511, Final residual = 0.000510653, No Iterations 1
smoothSolver:  Solving for Uz, Initial residual = 0.0289176, Final residual = 0.000836759, No Iterations 1
GAMG:  Solving for p, Initial residual = 0.158917, Final residual = 0.00152999, No Iterations 22
time step continuity errors : sum local = 7.55076e-05, global = -2.0272e-08, cumulative = 7.4361e-09
smoothSolver:  Solving for omega, Initial residual = 0.00078785, Final residual = 7.65385e-05, No Iterations 2
smoothSolver:  Solving for k, Initial residual = 0.010993, Final residual = 0.000385177, No Iterations 1
ExecutionTime = 0.8 s  ClockTime = 1 s

forces forceCoeffs1 output:
    sum of forces:
        pressure : (-85.6965 -5.55153e-19 308.58)
        viscous  : (5.0043 2.61116e-22 0.046783)
        porous   : (0 0 0)
    sum of moments:
        pressure : (-154.29 92.881 -42.8483)
        viscous  : (-0.0233915 -0.00224537 2.50215)
        porous   : (0 0 0)

forceCoeffs forceCoeffs output:
    Cm    = 0.0185758
    Cd    = -0.0128859
    Cl    = 0.0624855
    Cl(f) = 0.0498185
    Cl(r) = 0.012667

nearWallFields near output:
    Sampling fields to 5
Time = 6

smoothSolver:  Solving for Ux, Initial residual = 0.0228991, Final residual = 0.000428388, No Iterations 1
smoothSolver:  Solving for Uz, Initial residual = 0.0272182, Final residual = 0.000813331, No Iterations 1
GAMG:  Solving for p, Initial residual = 0.185741, Final residual = 0.00165546, No Iterations 15
time step continuity errors : sum local = 6.60826e-05, global = -3.99544e-08, cumulative = -3.25183e-08
smoothSolver:  Solving for omega, Initial residual = 0.000686506, Final residual = 6.80455e-05, No Iterations 2
smoothSolver:  Solving for k, Initial residual = 0.00666423, Final residual = 0.000283254, No Iterations 1
ExecutionTime = 0.89 s  ClockTime = 1 s

forces forceCoeffs1 output:
    sum of forces:
        pressure : (-11.3816 -1.38241e-19 331.771)
        viscous  : (4.98186 1.35151e-21 0.0441476)
        porous   : (0 0 0)
    sum of moments:
        pressure : (-165.886 40.7147 -5.69081)
        viscous  : (-0.0220738 -0.00188272 2.49093)
        porous   : (0 0 0)

forceCoeffs forceCoeffs output:
    Cm    = 0.00814257
    Cd    = 0.00219499
    Cl    = 0.0663392
    Cl(f) = 0.0413121
    Cl(r) = 0.025027

nearWallFields near output:
    Sampling fields to 6
Time = 7

smoothSolver:  Solving for Ux, Initial residual = 0.0224591, Final residual = 0.000382536, No Iterations 1
smoothSolver:  Solving for Uz, Initial residual = 0.026162, Final residual = 0.000805046, No Iterations 1
GAMG:  Solving for p, Initial residual = 0.159109, Final residual = 0.00151746, No Iterations 25
time step continuity errors : sum local = 6.59768e-05, global = 4.96334e-09, cumulative = -2.75549e-08
smoothSolver:  Solving for omega, Initial residual = 0.000592948, Final residual = 3.46151e-05, No Iterations 3
smoothSolver:  Solving for k, Initial residual = 0.00451178, Final residual = 0.000225244, No Iterations 1
ExecutionTime = 1.02 s  ClockTime = 1 s

forces forceCoeffs1 output:
    sum of forces:
        pressure : (33.4175 2.2856e-19 484.71)
        viscous  : (4.96645 2.21664e-21 0.0442725)
        porous   : (0 0 0)
    sum of moments:
        pressure : (-242.355 17.2334 16.7088)
        viscous  : (-0.0221362 -0.00120886 2.48323)
        porous   : (0 0 0)

forceCoeffs forceCoeffs output:
    Cm    = 0.00344644
    Cd    = 0.0127403
    Cl    = 0.0964161
    Cl(f) = 0.0516545
    Cl(r) = 0.0447616

nearWallFields near output:
    Sampling fields to 7
Time = 8

smoothSolver:  Solving for Ux, Initial residual = 0.0220327, Final residual = 0.000353707, No Iterations 1
smoothSolver:  Solving for Uz, Initial residual = 0.0260964, Final residual = 0.000839603, No Iterations 1
GAMG:  Solving for p, Initial residual = 0.11792, Final residual = 0.00110292, No Iterations 25
time step continuity errors : sum local = 5.62534e-05, global = -1.55759e-08, cumulative = -4.31309e-08
smoothSolver:  Solving for omega, Initial residual = 0.000526231, Final residual = 4.94849e-05, No Iterations 2
smoothSolver:  Solving for k, Initial residual = 0.00349001, Final residual = 0.000194733, No Iterations 1
ExecutionTime = 1.13 s  ClockTime = 1 s

forces forceCoeffs1 output:
    sum of forces:
        pressure : (20.3111 3.71694e-19 630.217)
        viscous  : (5.39344 1.58131e-21 0.0513232)
        porous   : (0 0 0)
    sum of moments:
        pressure : (-315.108 24.5092 10.1556)
        viscous  : (-0.0256616 -0.00637887 2.69672)
        porous   : (0 0 0)

forceCoeffs forceCoeffs output:
    Cm    = 0.00490057
    Cd    = 0.011731
    Cl    = 0.125612
    Cl(f) = 0.0677065
    Cl(r) = 0.0579054

nearWallFields near output:
    Sampling fields to 8
Time = 9

smoothSolver:  Solving for Ux, Initial residual = 0.0215359, Final residual = 0.000343554, No Iterations 1
smoothSolver:  Solving for Uz, Initial residual = 0.0253894, Final residual = 0.000828964, No Iterations 1
GAMG:  Solving for p, Initial residual = 0.116608, Final residual = 0.00112669, No Iterations 17
time step continuity errors : sum local = 5.88162e-05, global = 1.4851e-08, cumulative = -2.82799e-08
smoothSolver:  Solving for omega, Initial residual = 0.000479377, Final residual = 4.19934e-05, No Iterations 2
smoothSolver:  Solving for k, Initial residual = 0.00319062, Final residual = 0.000191202, No Iterations 1
ExecutionTime = 1.23 s  ClockTime = 1 s

forces forceCoeffs1 output:
    sum of forces:
        pressure : (-15.5883 3.10308e-19 688.788)
        viscous  : (6.49185 -1.04154e-21 0.0607027)
        porous   : (0 0 0)
    sum of moments:
        pressure : (-344.394 45.8387 -7.79415)
        viscous  : (-0.0303513 -0.0160355 3.24593)
        porous   : (0 0 0)

forceCoeffs forceCoeffs output:
    Cm    = 0.00916453
    Cd    = 0.00539353
    Cl    = 0.137676
    Cl(f) = 0.0780026
    Cl(r) = 0.0596735

nearWallFields near output:
    Sampling fields to 9
Time = 10

smoothSolver:  Solving for Ux, Initial residual = 0.0211172, Final residual = 0.000368914, No Iterations 1
smoothSolver:  Solving for Uz, Initial residual = 0.0238469, Final residual = 0.000787849, No Iterations 1
GAMG:  Solving for p, Initial residual = 0.123993, Final residual = 0.00119472, No Iterations 24
time step continuity errors : sum local = 5.64174e-05, global = 4.77824e-09, cumulative = -2.35017e-08
smoothSolver:  Solving for omega, Initial residual = 0.000437134, Final residual = 3.59881e-05, No Iterations 2
smoothSolver:  Solving for k, Initial residual = 0.00352192, Final residual = 0.000215346, No Iterations 1
ExecutionTime = 1.36 s  ClockTime = 1 s

forces forceCoeffs1 output:
    sum of forces:
        pressure : (-34.1853 9.09172e-20 674.469)
        viscous  : (8.29505 -4.45769e-21 0.0748278)
        porous   : (0 0 0)
    sum of moments:
        pressure : (-337.234 57.4799 -17.0926)
        viscous  : (-0.0374139 -0.0330858 4.14752)
        porous   : (0 0 0)

forceCoeffs forceCoeffs output:
    Cm    = 0.0114894
    Cd    = 0.00188965
    Cl    = 0.134995
    Cl(f) = 0.0789868
    Cl(r) = 0.056008

nearWallFields near output:
    Sampling fields to 10
Time = 11

smoothSolver:  Solving for Ux, Initial residual = 0.0207476, Final residual = 0.000377535, No Iterations 1
smoothSolver:  Solving for Uz, Initial residual = 0.0225058, Final residual = 0.000755782, No Iterations 1
GAMG:  Solving for p, Initial residual = 0.125554, Final residual = 0.00123394, No Iterations 24
time step continuity errors : sum local = 5.34275e-05, global = -1.53302e-08, cumulative = -3.88319e-08
smoothSolver:  Solving for omega, Initial residual = 0.000408157, Final residual = 3.0341e-05, No Iterations 2
smoothSolver:  Solving for k, Initial residual = 0.00383471, Final residual = 0.000197689, No Iterations 1
ExecutionTime = 1.5 s  ClockTime = 1 s

forces forceCoeffs1 output:
    sum of forces:
        pressure : (-26.0827 -1.57992e-19 648.385)
        viscous  : (11.0193 -3.17029e-21 0.0922752)
        porous   : (0 0 0)
    sum of moments:
        pressure : (-324.192 47.7477 -13.0414)
        viscous  : (-0.0461376 -0.0577806 5.50966)
        porous   : (0 0 0)

forceCoeffs forceCoeffs output:
    Cm    = 0.00953799
    Cd    = 0.00377919
    Cl    = 0.129675
    Cl(f) = 0.0743756
    Cl(r) = 0.0552997

nearWallFields near output:
    Sampling fields to 11
Time = 12

smoothSolver:  Solving for Ux, Initial residual = 0.0202683, Final residual = 0.000347785, No Iterations 1
smoothSolver:  Solving for Uz, Initial residual = 0.0211627, Final residual = 0.000720324, No Iterations 1
GAMG:  Solving for p, Initial residual = 0.116911, Final residual = 0.00112731, No Iterations 20
time step continuity errors : sum local = 5.12332e-05, global = -4.88712e-09, cumulative = -4.3719e-08
smoothSolver:  Solving for omega, Initial residual = 0.000393366, Final residual = 2.49954e-05, No Iterations 2
smoothSolver:  Solving for k, Initial residual = 0.00338774, Final residual = 0.000153223, No Iterations 1
ExecutionTime = 1.66 s  ClockTime = 1 s

forces forceCoeffs1 output:
    sum of forces:
        pressure : (-7.07924 -2.84387e-19 653.196)
        viscous  : (14.261 1.92234e-21 0.104433)
        porous   : (0 0 0)
    sum of moments:
        pressure : (-326.598 25.0296 -3.53962)
        viscous  : (-0.0522167 -0.0788398 7.13051)
        porous   : (0 0 0)

forceCoeffs forceCoeffs output:
    Cm    = 0.00499016
    Cd    = 0.00827262
    Cl    = 0.130406
    Cl(f) = 0.0701931
    Cl(r) = 0.0602127

nearWallFields near output:
    Sampling fields to 12
Time = 13

smoothSolver:  Solving for Ux, Initial residual = 0.0198649, Final residual = 0.000323265, No Iterations 1
smoothSolver:  Solving for Uz, Initial residual = 0.0202165, Final residual = 0.000716177, No Iterations 1
GAMG:  Solving for p, Initial residual = 0.10108, Final residual = 0.000996512, No Iterations 25
time step continuity errors : sum local = 5.02975e-05, global = 9.94868e-09, cumulative = -3.37704e-08
smoothSolver:  Solving for omega, Initial residual = 0.000375637, Final residual = 2.01471e-05, No Iterations 2
smoothSolver:  Solving for k, Initial residual = 0.00277778, Final residual = 0.000115731, No Iterations 1
ExecutionTime = 1.82 s  ClockTime = 2 s

forces forceCoeffs1 output:
    sum of forces:
        pressure : (5.1016 -2.20363e-19 686.959)
        viscous  : (17.5311 4.37803e-21 0.111345)
        porous   : (0 0 0)
    sum of moments:
        pressure : (-343.479 7.27257 2.5508)
        viscous  : (-0.0556725 -0.0926597 8.76555)
        porous   : (0 0 0)

forceCoeffs forceCoeffs output:
    Cm    = 0.00143598
    Cd    = 0.011712
    Cl    = 0.136989
    Cl(f) = 0.0699304
    Cl(r) = 0.0670584

nearWallFields near output:
    Sampling fields to 13
Time = 14

smoothSolver:  Solving for Ux, Initial residual = 0.0195952, Final residual = 0.000329968, No Iterations 1
smoothSolver:  Solving for Uz, Initial residual = 0.0195913, Final residual = 0.000718319, No Iterations 1
GAMG:  Solving for p, Initial residual = 0.0914407, Final residual = 0.000909264, No Iterations 27
time step continuity errors : sum local = 4.78506e-05, global = -1.18924e-08, cumulative = -4.56628e-08
smoothSolver:  Solving for omega, Initial residual = 0.000346284, Final residual = 1.5991e-05, No Iterations 2
smoothSolver:  Solving for k, Initial residual = 0.00218464, Final residual = 8.73495e-05, No Iterations 1
ExecutionTime = 1.97 s  ClockTime = 2 s

forces forceCoeffs1 output:
    sum of forces:
        pressure : (4.86614 -5.79278e-20 722.631)
        viscous  : (20.4258 -7.46404e-22 0.111815)
        porous   : (0 0 0)
    sum of moments:
        pressure : (-361.316 5.10382 2.43307)
        viscous  : (-0.0559074 -0.0974848 10.2129)
        porous   : (0 0 0)

forceCoeffs forceCoeffs output:
    Cm    = 0.00100127
    Cd    = 0.0126166
    Cl    = 0.144086
    Cl(f) = 0.0730441
    Cl(r) = 0.0710416

nearWallFields near output:
    Sampling fields to 14
Time = 15

smoothSolver:  Solving for Ux, Initial residual = 0.0193906, Final residual = 0.000348569, No Iterations 1
smoothSolver:  Solving for Uz, Initial residual = 0.0188507, Final residual = 0.000698933, No Iterations 1
GAMG:  Solving for p, Initial residual = 0.0947406, Final residual = 0.000885826, No Iterations 24
time step continuity errors : sum local = 4.4277e-05, global = 9.4189e-09, cumulative = -3.62439e-08
smoothSolver:  Solving for omega, Initial residual = 0.000309802, Final residual = 1.24161e-05, No Iterations 2
smoothSolver:  Solving for k, Initial residual = 0.00166211, Final residual = 6.60171e-05, No Iterations 1
ExecutionTime = 2.08 s  ClockTime = 2 s

forces forceCoeffs1 output:
    sum of forces:
        pressure : (-1.82602 5.23097e-20 742.505)
        viscous  : (22.7217 -8.26555e-21 0.104842)
        porous   : (0 0 0)
    sum of moments:
        pressure : (-371.252 14.2102 -0.913011)
        viscous  : (-0.052421 -0.0941516 11.3608)
        porous   : (0 0 0)

forceCoeffs forceCoeffs output:
    Cm    = 0.00282321
    Cd    = 0.0119465
    Cl    = 0.1481
    Cl(f) = 0.076873
    Cl(r) = 0.0712266

nearWallFields near output:
    Sampling fields to 15
Time = 16

smoothSolver:  Solving for Ux, Initial residual = 0.0192662, Final residual = 0.000372403, No Iterations 1
smoothSolver:  Solving for Uz, Initial residual = 0.0180185, Final residual = 0.000671227, No Iterations 1
GAMG:  Solving for p, Initial residual = 0.101546, Final residual = 0.00100651, No Iterations 25
time step continuity errors : sum local = 4.60438e-05, global = -1.16751e-08, cumulative = -4.7919e-08
smoothSolver:  Solving for omega, Initial residual = 0.000273774, Final residual = 9.75454e-06, No Iterations 2
smoothSolver:  Solving for k, Initial residual = 0.00123318, Final residual = 5.04101e-05, No Iterations 1
ExecutionTime = 2.23 s  ClockTime = 2 s

forces forceCoeffs1 output:
    sum of forces:
        pressure : (-7.20779 4.61404e-20 750.418)
        viscous  : (24.3606 -1.0431e-20 0.0909998)
        porous   : (0 0 0)
    sum of moments:
        pressure : (-375.209 22.3772 -3.6039)
        viscous  : (-0.0454999 -0.0854633 12.1803)
        porous   : (0 0 0)

forceCoeffs forceCoeffs output:
    Cm    = 0.00445834
    Cd    = 0.0112816
    Cl    = 0.149717
    Cl(f) = 0.0793166
    Cl(r) = 0.0703999

nearWallFields near output:
    Sampling fields to 16
Time = 17

smoothSolver:  Solving for Ux, Initial residual = 0.0191582, Final residual = 0.000388256, No Iterations 1
smoothSolver:  Solving for Uz, Initial residual = 0.0171299, Final residual = 0.000641898, No Iterations 1
GAMG:  Solving for p, Initial residual = 0.106274, Final residual = 0.00102943, No Iterations 30
time step continuity errors : sum local = 4.49893e-05, global = -1.92325e-08, cumulative = -6.71515e-08
smoothSolver:  Solving for omega, Initial residual = 0.00024315, Final residual = 7.90034e-06, No Iterations 2
smoothSolver:  Solving for k, Initial residual = 0.00090299, Final residual = 3.92871e-05, No Iterations 1
ExecutionTime = 2.37 s  ClockTime = 2 s

forces forceCoeffs1 output:
    sum of forces:
        pressure : (-8.71897 -1.42972e-20 759.091)
        viscous  : (25.4045 -6.29722e-21 0.0729334)
        porous   : (0 0 0)
    sum of moments:
        pressure : (-379.546 21.4299 -4.35948)
        viscous  : (-0.0364667 -0.0745962 12.7023)
        porous   : (0 0 0)

forceCoeffs forceCoeffs output:
    Cm    = 0.00427106
    Cd    = 0.0112789
    Cl    = 0.15145
    Cl(f) = 0.0799961
    Cl(r) = 0.071454

nearWallFields near output:
    Sampling fields to 17
Time = 18

smoothSolver:  Solving for Ux, Initial residual = 0.0190416, Final residual = 0.000390832, No Iterations 1
smoothSolver:  Solving for Uz, Initial residual = 0.0162962, Final residual = 0.000619422, No Iterations 1
GAMG:  Solving for p, Initial residual = 0.100788, Final residual = 0.000974754, No Iterations 35
time step continuity errors : sum local = 4.40128e-05, global = 1.53445e-08, cumulative = -5.1807e-08
smoothSolver:  Solving for omega, Initial residual = 0.000219967, Final residual = 6.73856e-06, No Iterations 2
smoothSolver:  Solving for k, Initial residual = 0.000665137, Final residual = 3.1908e-05, No Iterations 1
ExecutionTime = 2.54 s  ClockTime = 2 s

forces forceCoeffs1 output:
    sum of forces:
        pressure : (-8.67033 -2.18845e-20 772.91)
        viscous  : (25.9668 -1.83597e-21 0.0535312)
        porous   : (0 0 0)
    sum of moments:
        pressure : (-386.455 13.0143 -4.33516)
        viscous  : (-0.0267656 -0.0645145 12.9834)
        porous   : (0 0 0)

forceCoeffs forceCoeffs output:
    Cm    = 0.00258995
    Cd    = 0.0115453
    Cl    = 0.1542
    Cl(f) = 0.0796899
    Cl(r) = 0.07451

nearWallFields near output:
    Sampling fields to 18
Time = 19

smoothSolver:  Solving for Ux, Initial residual = 0.0188989, Final residual = 0.000396754, No Iterations 1
smoothSolver:  Solving for Uz, Initial residual = 0.0155529, Final residual = 0.000611702, No Iterations 1
GAMG:  Solving for p, Initial residual = 0.0901106, Final residual = 0.000874544, No Iterations 31
time step continuity errors : sum local = 4.20869e-05, global = -7.14479e-09, cumulative = -5.89518e-08
smoothSolver:  Solving for omega, Initial residual = 0.000203392, Final residual = 6.04644e-06, No Iterations 2
smoothSolver:  Solving for k, Initial residual = 0.000518991, Final residual = 2.90735e-05, No Iterations 1
ExecutionTime = 2.68 s  ClockTime = 3 s

forces forceCoeffs1 output:
    sum of forces:
        pressure : (-9.27351 6.01261e-20 786.524)
        viscous  : (26.1668 -2.46594e-21 0.0366391)
        porous   : (0 0 0)
    sum of moments:
        pressure : (-393.262 4.54402 -4.63675)
        viscous  : (-0.0183195 -0.0569282 13.0834)
        porous   : (0 0 0)

forceCoeffs forceCoeffs output:
    Cm    = 0.000897418
    Cd    = 0.0116071
    Cl    = 0.15692
    Cl(f) = 0.0793572
    Cl(r) = 0.0775624

nearWallFields near output:
    Sampling fields to 19
Time = 20

smoothSolver:  Solving for Ux, Initial residual = 0.0188153, Final residual = 0.000414944, No Iterations 1
smoothSolver:  Solving for Uz, Initial residual = 0.0148741, Final residual = 0.000603626, No Iterations 1
GAMG:  Solving for p, Initial residual = 0.0828599, Final residual = 0.000802224, No Iterations 29
time step continuity errors : sum local = 4.0085e-05, global = -1.16332e-08, cumulative = -7.0585e-08
smoothSolver:  Solving for omega, Initial residual = 0.00019232, Final residual = 5.58828e-06, No Iterations 2
smoothSolver:  Solving for k, Initial residual = 0.000467688, Final residual = 2.91348e-05, No Iterations 1
ExecutionTime = 2.81 s  ClockTime = 3 s

forces forceCoeffs1 output:
    sum of forces:
        pressure : (-9.86919 1.62724e-19 794.905)
        viscous  : (26.1045 -8.27644e-21 0.0240414)
        porous   : (0 0 0)
    sum of moments:
        pressure : (-397.453 1.42271 -4.93459)
        viscous  : (-0.0120207 -0.0531009 13.0523)
        porous   : (0 0 0)

forceCoeffs forceCoeffs output:
    Cm    = 0.000273923
    Cd    = 0.0115633
    Cl    = 0.158598
    Cl(f) = 0.0795729
    Cl(r) = 0.0790251

nearWallFields near output:
    Sampling fields to 20
Time = 21

smoothSolver:  Solving for Ux, Initial residual = 0.0187275, Final residual = 0.000432042, No Iterations 1
smoothSolver:  Solving for Uz, Initial residual = 0.0142381, Final residual = 0.000586446, No Iterations 1
GAMG:  Solving for p, Initial residual = 0.0821547, Final residual = 0.000805632, No Iterations 34
time step continuity errors : sum local = 3.98934e-05, global = 1.36097e-08, cumulative = -5.69753e-08
smoothSolver:  Solving for omega, Initial residual = 0.000184084, Final residual = 5.22749e-06, No Iterations 2
smoothSolver:  Solving for k, Initial residual = 0.000459641, Final residual = 3.03348e-05, No Iterations 1
ExecutionTime = 2.94 s  ClockTime = 3 s

forces forceCoeffs1 output:
    sum of forces:
        pressure : (-8.94669 1.7818e-19 800.522)
        viscous  : (25.8635 -1.60039e-20 0.0158181)
        porous   : (0 0 0)
    sum of moments:
        pressure : (-400.261 3.25899 -4.47334)
        viscous  : (-0.00790907 -0.0530684 12.9317)
        porous   : (0 0 0)

forceCoeffs forceCoeffs output:
    Cm    = 0.000641185
    Cd    = 0.0117581
    Cl    = 0.159711
    Cl(f) = 0.0804967
    Cl(r) = 0.0792143

nearWallFields near output:
    Sampling fields to 21
Time = 22

smoothSolver:  Solving for Ux, Initial residual = 0.0185734, Final residual = 0.000444692, No Iterations 1
smoothSolver:  Solving for Uz, Initial residual = 0.0136547, Final residual = 0.000564384, No Iterations 1
GAMG:  Solving for p, Initial residual = 0.0850041, Final residual = 0.000836709, No Iterations 37
time step continuity errors : sum local = 3.97244e-05, global = 2.22464e-08, cumulative = -3.47289e-08
smoothSolver:  Solving for omega, Initial residual = 0.000177503, Final residual = 4.79968e-06, No Iterations 2
smoothSolver:  Solving for k, Initial residual = 0.000459485, Final residual = 3.19654e-05, No Iterations 1
ExecutionTime = 3.11 s  ClockTime = 3 s

forces forceCoeffs1 output:
    sum of forces:
        pressure : (-6.79814 4.83681e-20 810.037)
        viscous  : (25.4945 -2.24567e-20 0.0116556)
        porous   : (0 0 0)
    sum of moments:
        pressure : (-405.018 6.05988 -3.39907)
        viscous  : (-0.0058278 -0.0562145 12.7472)
        porous   : (0 0 0)

forceCoeffs forceCoeffs output:
    Cm    = 0.00120073
    Cd    = 0.0122131
    Cl    = 0.161592
    Cl(f) = 0.0819967
    Cl(r) = 0.0795952

nearWallFields near output:
    Sampling fields to 22
Time = 23

smoothSolver:  Solving for Ux, Initial residual = 0.0184473, Final residual = 0.00045744, No Iterations 1
smoothSolver:  Solving for Uz, Initial residual = 0.0130781, Final residual = 0.000539608, No Iterations 1
GAMG:  Solving for p, Initial residual = 0.0894407, Final residual = 0.000882097, No Iterations 33
time step continuity errors : sum local = 4.00633e-05, global = 1.31648e-08, cumulative = -2.15642e-08
smoothSolver:  Solving for omega, Initial residual = 0.000166117, Final residual = 4.34557e-06, No Iterations 2
smoothSolver:  Solving for k, Initial residual = 0.000456253, Final residual = 3.39294e-05, No Iterations 1
ExecutionTime = 3.27 s  ClockTime = 3 s

forces forceCoeffs1 output:
    sum of forces:
        pressure : (-5.46329 -1.87514e-19 826.465)
        viscous  : (25.0385 -2.68063e-20 0.010985)
        porous   : (0 0 0)
    sum of moments:
        pressure : (-413.232 6.71338 -2.73164)
        viscous  : (-0.00549252 -0.0621089 12.5193)
        porous   : (0 0 0)

forceCoeffs forceCoeffs output:
    Cm    = 0.00133025
    Cd    = 0.0125606
    Cl    = 0.164864
    Cl(f) = 0.0837621
    Cl(r) = 0.0811016

nearWallFields near output:
    Sampling fields to 23
Time = 24

smoothSolver:  Solving for Ux, Initial residual = 0.0183931, Final residual = 0.00047326, No Iterations 1
smoothSolver:  Solving for Uz, Initial residual = 0.0124788, Final residual = 0.000518601, No Iterations 1
GAMG:  Solving for p, Initial residual = 0.0896624, Final residual = 0.000880465, No Iterations 30
time step continuity errors : sum local = 3.92749e-05, global = -4.93942e-09, cumulative = -2.65036e-08
smoothSolver:  Solving for omega, Initial residual = 0.000150004, Final residual = 3.99683e-06, No Iterations 2
smoothSolver:  Solving for k, Initial residual = 0.000449567, Final residual = 3.60862e-05, No Iterations 1
ExecutionTime = 3.42 s  ClockTime = 3 s

forces forceCoeffs1 output:
    sum of forces:
        pressure : (-6.41533 -4.15046e-19 845.67)
        viscous  : (24.5295 -2.8567e-20 0.0132041)
        porous   : (0 0 0)
    sum of moments:
        pressure : (-422.835 5.15642 -3.20766)
        viscous  : (-0.00660207 -0.0701109 12.2648)
        porous   : (0 0 0)

forceCoeffs forceCoeffs output:
    Cm    = 0.00101726
    Cd    = 0.0124698
    Cl    = 0.168715
    Cl(f) = 0.0853749
    Cl(r) = 0.0833404

nearWallFields near output:
    Sampling fields to 24
Time = 25

smoothSolver:  Solving for Ux, Initial residual = 0.0183199, Final residual = 0.000489658, No Iterations 1
smoothSolver:  Solving for Uz, Initial residual = 0.0118834, Final residual = 0.000505493, No Iterations 1
GAMG:  Solving for p, Initial residual = 0.0848222, Final residual = 0.000810211, No Iterations 36
time step continuity errors : sum local = 3.65879e-05, global = -8.04593e-09, cumulative = -3.45495e-08
smoothSolver:  Solving for omega, Initial residual = 0.000135487, Final residual = 3.67347e-06, No Iterations 2
smoothSolver:  Solving for k, Initial residual = 0.000443594, Final residual = 3.81233e-05, No Iterations 1
ExecutionTime = 3.59 s  ClockTime = 3 s

forces forceCoeffs1 output:
    sum of forces:
        pressure : (-8.78511 -5.17103e-19 860.81)
        viscous  : (23.9941 -2.84574e-20 0.0189421)
        porous   : (0 0 0)
    sum of moments:
        pressure : (-430.405 3.13609 -4.39255)
        viscous  : (-0.00947107 -0.080508 11.9971)
        porous   : (0 0 0)

forceCoeffs forceCoeffs output:
    Cm    = 0.000611116
    Cd    = 0.0120481
    Cl    = 0.171771
    Cl(f) = 0.0864965
    Cl(r) = 0.0852742

nearWallFields near output:
    Sampling fields to 25
Time = 26

smoothSolver:  Solving for Ux, Initial residual = 0.0182968, Final residual = 0.000506333, No Iterations 1
smoothSolver:  Solving for Uz, Initial residual = 0.0113409, Final residual = 0.000493151, No Iterations 1
GAMG:  Solving for p, Initial residual = 0.0792017, Final residual = 0.000790558, No Iterations 36
time step continuity errors : sum local = 3.66084e-05, global = -2.45755e-08, cumulative = -5.9125e-08
smoothSolver:  Solving for omega, Initial residual = 0.000124568, Final residual = 3.35735e-06, No Iterations 2
smoothSolver:  Solving for k, Initial residual = 0.000437072, Final residual = 4.0106e-05, No Iterations 1
ExecutionTime = 3.74 s  ClockTime = 4 s

forces forceCoeffs1 output:
    sum of forces:
        pressure : (-10.3967 -4.33146e-19 868.878)
        viscous  : (23.449 -2.83885e-20 0.0284553)
        porous   : (0 0 0)
    sum of moments:
        pressure : (-434.439 2.05905 -5.19835)
        viscous  : (-0.0142277 -0.0927341 11.7245)
        porous   : (0 0 0)

forceCoeffs forceCoeffs output:
    Cm    = 0.000393263
    Cd    = 0.0117019
    Cl    = 0.173406
    Cl(f) = 0.0870965
    Cl(r) = 0.08631

nearWallFields near output:
    Sampling fields to 26
Time = 27

smoothSolver:  Solving for Ux, Initial residual = 0.0182231, Final residual = 0.000517671, No Iterations 1
smoothSolver:  Solving for Uz, Initial residual = 0.0108781, Final residual = 0.000477307, No Iterations 1
GAMG:  Solving for p, Initial residual = 0.0773012, Final residual = 0.000759765, No Iterations 31
time step continuity errors : sum local = 3.57799e-05, global = 4.17212e-08, cumulative = -1.74038e-08
smoothSolver:  Solving for omega, Initial residual = 0.000114781, Final residual = 3.0517e-06, No Iterations 2
smoothSolver:  Solving for k, Initial residual = 0.000429248, Final residual = 4.19019e-05, No Iterations 1
ExecutionTime = 3.89 s  ClockTime = 4 s

forces forceCoeffs1 output:
    sum of forces:
        pressure : (-10.0366 -2.01146e-19 873.086)
        viscous  : (22.9072 -3.09784e-20 0.040702)
        porous   : (0 0 0)
    sum of moments:
        pressure : (-436.543 1.99604 -5.0183)
        viscous  : (-0.020351 -0.106241 11.4536)
        porous   : (0 0 0)

forceCoeffs forceCoeffs output:
    Cm    = 0.000377959
    Cd    = 0.0117098
    Cl    = 0.174251
    Cl(f) = 0.0875036
    Cl(r) = 0.0867477

nearWallFields near output:
    Sampling fields to 27
Time = 28

smoothSolver:  Solving for Ux, Initial residual = 0.018041, Final residual = 0.000524049, No Iterations 1
smoothSolver:  Solving for Uz, Initial residual = 0.0104487, Final residual = 0.000457724, No Iterations 1
GAMG:  Solving for p, Initial residual = 0.076937, Final residual = 0.000751767, No Iterations 32
time step continuity errors : sum local = 3.53594e-05, global = 1.79419e-08, cumulative = 5.38061e-10
smoothSolver:  Solving for omega, Initial residual = 0.000109555, Final residual = 2.81257e-06, No Iterations 2
smoothSolver:  Solving for k, Initial residual = 0.000419705, Final residual = 7.94731e-06, No Iterations 2
ExecutionTime = 4.02 s  ClockTime = 4 s

forces forceCoeffs1 output:
    sum of forces:
        pressure : (-8.51263 6.54839e-20 879.227)
        viscous  : (22.3764 -3.76843e-20 0.0548506)
        porous   : (0 0 0)
    sum of moments:
        pressure : (-439.614 2.11214 -4.25632)
        viscous  : (-0.0274253 -0.120871 11.1882)
        porous   : (0 0 0)

forceCoeffs forceCoeffs output:
    Cm    = 0.000398254
    Cd    = 0.0119726
    Cl    = 0.17547
    Cl(f) = 0.0881334
    Cl(r) = 0.0873369

nearWallFields near output:
    Sampling fields to 28
Time = 29

smoothSolver:  Solving for Ux, Initial residual = 0.0178506, Final residual = 0.000528657, No Iterations 1
smoothSolver:  Solving for Uz, Initial residual = 0.0100407, Final residual = 0.000438134, No Iterations 1
GAMG:  Solving for p, Initial residual = 0.0766506, Final residual = 0.000736664, No Iterations 34
time step continuity errors : sum local = 3.40462e-05, global = 1.32827e-08, cumulative = 1.38207e-08
smoothSolver:  Solving for omega, Initial residual = 0.000109245, Final residual = 2.68186e-06, No Iterations 2
smoothSolver:  Solving for k, Initial residual = 0.00040609, Final residual = 8.47691e-06, No Iterations 2
ExecutionTime = 4.17 s  ClockTime = 4 s

forces forceCoeffs1 output:
    sum of forces:
        pressure : (-7.61967 2.35324e-19 890.542)
        viscous  : (21.8623 -4.74365e-20 0.0700688)
        porous   : (0 0 0)
    sum of moments:
        pressure : (-445.271 1.8367 -3.80984)
        viscous  : (-0.0350344 -0.136514 10.9311)
        porous   : (0 0 0)

forceCoeffs forceCoeffs output:
    Cm    = 0.000340038
    Cd    = 0.0121668
    Cl    = 0.177729
    Cl(f) = 0.0892046
    Cl(r) = 0.0885246

nearWallFields near output:
    Sampling fields to 29
Time = 30

smoothSolver:  Solving for Ux, Initial residual = 0.0177753, Final residual = 0.00053683, No Iterations 1
smoothSolver:  Solving for Uz, Initial residual = 0.00963759, Final residual = 0.000421093, No Iterations 1
GAMG:  Solving for p, Initial residual = 0.0762506, Final residual = 0.000751612, No Iterations 34
time step continuity errors : sum local = 3.39863e-05, global = 2.31976e-08, cumulative = 3.70183e-08
smoothSolver:  Solving for omega, Initial residual = 0.00011051, Final residual = 2.58065e-06, No Iterations 2
smoothSolver:  Solving for k, Initial residual = 0.000390894, Final residual = 8.88196e-06, No Iterations 2
ExecutionTime = 4.3 s  ClockTime = 4 s

forces forceCoeffs1 output:
    sum of forces:
        pressure : (-8.2989 2.22515e-19 905.644)
        viscous  : (21.3631 -5.64161e-20 0.085375)
        porous   : (0 0 0)
    sum of moments:
        pressure : (-452.822 1.33087 -4.14945)
        viscous  : (-0.0426875 -0.152311 10.6816)
        porous   : (0 0 0)

forceCoeffs forceCoeffs output:
    Cm    = 0.000235711
    Cd    = 0.0120897
    Cl    = 0.180761
    Cl(f) = 0.0906162
    Cl(r) = 0.0901448

nearWallFields near output:
    Sampling fields to 30
Time = 31

smoothSolver:  Solving for Ux, Initial residual = 0.017729, Final residual = 0.000545515, No Iterations 1
smoothSolver:  Solving for Uz, Initial residual = 0.00923507, Final residual = 0.00040565, No Iterations 1
GAMG:  Solving for p, Initial residual = 0.0748411, Final residual = 0.000731195, No Iterations 31
time step continuity errors : sum local = 3.26371e-05, global = -4.08629e-08, cumulative = -3.8446e-09
smoothSolver:  Solving for omega, Initial residual = 0.000112304, Final residual = 2.47303e-06, No Iterations 2
smoothSolver:  Solving for k, Initial residual = 0.000379301, Final residual = 9.22339e-06, No Iterations 2
ExecutionTime = 4.46 s  ClockTime = 4 s

forces forceCoeffs1 output:
    sum of forces:
        pressure : (-9.95856 3.48712e-20 920.65)
        viscous  : (20.8849 -6.06054e-20 0.0990896)
        porous   : (0 0 0)
    sum of moments:
        pressure : (-460.325 1.1123 -4.97928)
        viscous  : (-0.0495448 -0.167697 10.4425)
        porous   : (0 0 0)

forceCoeffs forceCoeffs output:
    Cm    = 0.00018892
    Cd    = 0.01182
    Cl    = 0.183783
    Cl(f) = 0.0920805
    Cl(r) = 0.0917026

nearWallFields near output:
    Sampling fields to 31
Time = 32

smoothSolver:  Solving for Ux, Initial residual = 0.017626, Final residual = 0.000552378, No Iterations 1
smoothSolver:  Solving for Uz, Initial residual = 0.00887372, Final residual = 0.000391458, No Iterations 1
GAMG:  Solving for p, Initial residual = 0.0728054, Final residual = 0.000725617, No Iterations 28
time step continuity errors : sum local = 3.2448e-05, global = -3.12127e-08, cumulative = -3.50573e-08
smoothSolver:  Solving for omega, Initial residual = 0.000115234, Final residual = 2.39687e-06, No Iterations 2
smoothSolver:  Solving for k, Initial residual = 0.000368346, Final residual = 9.45319e-06, No Iterations 2
ExecutionTime = 4.6 s  ClockTime = 4 s

forces forceCoeffs1 output:
    sum of forces:
        pressure : (-11.3319 -2.27857e-19 932.882)
        viscous  : (20.4433 -5.90393e-20 0.109416)
        porous   : (0 0 0)
    sum of moments:
        pressure : (-466.441 1.37634 -5.66594)
        viscous  : (-0.054708 -0.181825 10.2216)
        porous   : (0 0 0)

forceCoeffs forceCoeffs output:
    Cm    = 0.000238903
    Cd    = 0.0115856
    Cl    = 0.186247
    Cl(f) = 0.0933625
    Cl(r) = 0.0928847

nearWallFields near output:
    Sampling fields to 32
Time = 33

smoothSolver:  Solving for Ux, Initial residual = 0.0174743, Final residual = 0.000556949, No Iterations 1
smoothSolver:  Solving for Uz, Initial residual = 0.00857838, Final residual = 0.000378327, No Iterations 1
GAMG:  Solving for p, Initial residual = 0.0706841, Final residual = 0.000706557, No Iterations 31
time step continuity errors : sum local = 3.19891e-05, global = 2.26684e-08, cumulative = -1.23888e-08
smoothSolver:  Solving for omega, Initial residual = 0.000118221, Final residual = 2.32556e-06, No Iterations 2
smoothSolver:  Solving for k, Initial residual = 0.000358587, Final residual = 9.6012e-06, No Iterations 2
ExecutionTime = 4.74 s  ClockTime = 5 s

forces forceCoeffs1 output:
    sum of forces:
        pressure : (-11.7596 -4.31268e-19 942.61)
        viscous  : (20.0499 -5.46766e-20 0.115647)
        porous   : (0 0 0)
    sum of moments:
        pressure : (-471.305 1.78641 -5.8798)
        viscous  : (-0.0578233 -0.194433 10.0249)
        porous   : (0 0 0)

forceCoeffs forceCoeffs output:
    Cm    = 0.000318394
    Cd    = 0.0115235
    Cl    = 0.1882
    Cl(f) = 0.0944183
    Cl(r) = 0.0937815

nearWallFields near output:
    Sampling fields to 33
Time = 34

smoothSolver:  Solving for Ux, Initial residual = 0.0172883, Final residual = 0.000557954, No Iterations 1
smoothSolver:  Solving for Uz, Initial residual = 0.00835137, Final residual = 0.000366024, No Iterations 1
GAMG:  Solving for p, Initial residual = 0.0681397, Final residual = 0.000646882, No Iterations 32
time step continuity errors : sum local = 2.96628e-05, global = -3.36182e-08, cumulative = -4.6007e-08
smoothSolver:  Solving for omega, Initial residual = 0.000120215, Final residual = 1.17758e-05, No Iterations 1
smoothSolver:  Solving for k, Initial residual = 0.000348458, Final residual = 9.67595e-06, No Iterations 2
ExecutionTime = 4.89 s  ClockTime = 5 s

forces forceCoeffs1 output:
    sum of forces:
        pressure : (-11.5998 -4.69179e-19 952.046)
        viscous  : (19.7075 -5.27794e-20 0.118753)
        porous   : (0 0 0)
    sum of moments:
        pressure : (-476.023 1.79733 -5.79991)
        viscous  : (-0.0593767 -0.205211 9.85374)
        porous   : (0 0 0)

forceCoeffs forceCoeffs output:
    Cm    = 0.000318423
    Cd    = 0.0115858
    Cl    = 0.190087
    Cl(f) = 0.0953619
    Cl(r) = 0.0947251

nearWallFields near output:
    Sampling fields to 34
Time = 35

smoothSolver:  Solving for Ux, Initial residual = 0.0171378, Final residual = 0.000558365, No Iterations 1
smoothSolver:  Solving for Uz, Initial residual = 0.00813183, Final residual = 0.000353688, No Iterations 1
GAMG:  Solving for p, Initial residual = 0.0659438, Final residual = 0.000637677, No Iterations 29
time step continuity errors : sum local = 2.93478e-05, global = 4.00253e-08, cumulative = -5.98176e-09
smoothSolver:  Solving for omega, Initial residual = 0.000123675, Final residual = 1.21574e-05, No Iterations 1
smoothSolver:  Solving for k, Initial residual = 0.000340925, Final residual = 9.75378e-06, No Iterations 2
ExecutionTime = 5.01 s  ClockTime = 5 s

forces forceCoeffs1 output:
    sum of forces:
        pressure : (-11.6408 -3.2919e-19 962.917)
        viscous  : (19.4188 -5.61376e-20 0.119566)
        porous   : (0 0 0)
    sum of moments:
        pressure : (-481.458 1.22491 -5.82039)
        viscous  : (-0.059783 -0.214095 9.70942)
        porous   : (0 0 0)

forceCoeffs forceCoeffs output:
    Cm    = 0.000202164
    Cd    = 0.0116338
    Cl    = 0.192262
    Cl(f) = 0.0963331
    Cl(r) = 0.0959288

nearWallFields near output:
    Sampling fields to 35
Time = 36

smoothSolver:  Solving for Ux, Initial residual = 0.0169983, Final residual = 0.000560762, No Iterations 1
smoothSolver:  Solving for Uz, Initial residual = 0.00788962, Final residual = 0.000340115, No Iterations 1
GAMG:  Solving for p, Initial residual = 0.064382, Final residual = 0.000620489, No Iterations 26
time step continuity errors : sum local = 2.83609e-05, global = -5.11589e-08, cumulative = -5.71406e-08
smoothSolver:  Solving for omega, Initial residual = 0.000122985, Final residual = 1.20882e-05, No Iterations 1
smoothSolver:  Solving for k, Initial residual = 0.000334477, Final residual = 9.75833e-06, No Iterations 2
ExecutionTime = 5.15 s  ClockTime = 5 s

forces forceCoeffs1 output:
    sum of forces:
        pressure : (-12.291 -1.01154e-19 975.332)
        viscous  : (19.1857 -6.35915e-20 0.118346)
        porous   : (0 0 0)
    sum of moments:
        pressure : (-487.666 0.363816 -6.14549)
        viscous  : (-0.0591731 -0.221026 9.59286)
        porous   : (0 0 0)

forceCoeffs forceCoeffs output:
    Cm    = 2.8558e-05
    Cd    = 0.0115873
    Cl    = 0.194751
    Cl(f) = 0.0974038
    Cl(r) = 0.0973467

nearWallFields near output:
    Sampling fields to 36
Time = 37

smoothSolver:  Solving for Ux, Initial residual = 0.0168561, Final residual = 0.000564107, No Iterations 1
smoothSolver:  Solving for Uz, Initial residual = 0.00764861, Final residual = 0.000325923, No Iterations 1
GAMG:  Solving for p, Initial residual = 0.0630602, Final residual = 0.000622833, No Iterations 24
time step continuity errors : sum local = 2.81263e-05, global = 2.67454e-09, cumulative = -5.44661e-08
smoothSolver:  Solving for omega, Initial residual = 0.000119037, Final residual = 1.17925e-05, No Iterations 1
smoothSolver:  Solving for k, Initial residual = 0.000326878, Final residual = 9.70791e-06, No Iterations 2
ExecutionTime = 5.28 s  ClockTime = 5 s

forces forceCoeffs1 output:
    sum of forces:
        pressure : (-13.3236 8.0457e-20 988.307)
        viscous  : (19.0084 -7.08849e-20 0.114906)
        porous   : (0 0 0)
    sum of moments:
        pressure : (-494.154 -0.344607 -6.66178)
        viscous  : (-0.057453 -0.225867 9.50419)
        porous   : (0 0 0)

forceCoeffs forceCoeffs output:
    Cm    = -0.000114095
    Cd    = 0.0114814
    Cl    = 0.197354
    Cl(f) = 0.0985629
    Cl(r) = 0.0987911

nearWallFields near output:
    Sampling fields to 37
Time = 38

smoothSolver:  Solving for Ux, Initial residual = 0.0166615, Final residual = 0.000565516, No Iterations 1
smoothSolver:  Solving for Uz, Initial residual = 0.00745275, Final residual = 0.000313801, No Iterations 1
GAMG:  Solving for p, Initial residual = 0.0617007, Final residual = 0.000581383, No Iterations 26
time step continuity errors : sum local = 2.60455e-05, global = 2.79499e-08, cumulative = -2.65162e-08
smoothSolver:  Solving for omega, Initial residual = 0.00011348, Final residual = 2.33478e-06, No Iterations 2
smoothSolver:  Solving for k, Initial residual = 0.000318322, Final residual = 9.63775e-06, No Iterations 2
ExecutionTime = 5.4 s  ClockTime = 5 s

forces forceCoeffs1 output:
    sum of forces:
        pressure : (-14.2342 1.13809e-19 1000.92)
        viscous  : (18.8845 -7.41042e-20 0.109468)
        porous   : (0 0 0)
    sum of moments:
        pressure : (-500.461 -0.67414 -7.1171)
        viscous  : (-0.0547339 -0.228588 9.44225)
        porous   : (0 0 0)

forceCoeffs forceCoeffs output:
    Cm    = -0.000180545
    Cd    = 0.0114068
    Cl    = 0.199883
    Cl(f) = 0.0997611
    Cl(r) = 0.100122

nearWallFields near output:
    Sampling fields to 38
Time = 39

smoothSolver:  Solving for Ux, Initial residual = 0.0164605, Final residual = 0.000563094, No Iterations 1
smoothSolver:  Solving for Uz, Initial residual = 0.00731943, Final residual = 0.000303196, No Iterations 1
GAMG:  Solving for p, Initial residual = 0.0601793, Final residual = 0.000594497, No Iterations 25
time step continuity errors : sum local = 2.66527e-05, global = -9.72476e-09, cumulative = -3.62409e-08
smoothSolver:  Solving for omega, Initial residual = 0.000105027, Final residual = 1.04776e-05, No Iterations 1
smoothSolver:  Solving for k, Initial residual = 0.000306437, Final residual = 9.47271e-06, No Iterations 2
ExecutionTime = 5.53 s  ClockTime = 5 s

forces forceCoeffs1 output:
    sum of forces:
        pressure : (-14.7449 -2.01142e-20 1013.01)
        viscous  : (18.8146 -7.19364e-20 0.101937)
        porous   : (0 0 0)
    sum of moments:
        pressure : (-506.507 -0.744349 -7.37247)
        viscous  : (-0.0509687 -0.229487 9.40732)
        porous   : (0 0 0)

forceCoeffs forceCoeffs output:
    Cm    = -0.000194767
    Cd    = 0.0114173
    Cl    = 0.202303
    Cl(f) = 0.100957
    Cl(r) = 0.101346

nearWallFields near output:
    Sampling fields to 39
Time = 40

smoothSolver:  Solving for Ux, Initial residual = 0.0162789, Final residual = 0.000558245, No Iterations 1
smoothSolver:  Solving for Uz, Initial residual = 0.00720741, Final residual = 0.000293563, No Iterations 1
GAMG:  Solving for p, Initial residual = 0.0580413, Final residual = 0.000546138, No Iterations 25
time step continuity errors : sum local = 2.46724e-05, global = 5.55415e-09, cumulative = -3.06868e-08
smoothSolver:  Solving for omega, Initial residual = 0.000102022, Final residual = 2.1303e-06, No Iterations 2
smoothSolver:  Solving for k, Initial residual = 0.00029454, Final residual = 9.33906e-06, No Iterations 2
ExecutionTime = 5.65 s  ClockTime = 6 s

forces forceCoeffs1 output:
    sum of forces:
        pressure : (-14.9997 -2.38442e-19 1025.08)
        viscous  : (18.7981 -6.66468e-20 0.0925326)
        porous   : (0 0 0)
    sum of moments:
        pressure : (-512.541 -0.858358 -7.49984)
        viscous  : (-0.0462663 -0.228992 9.39906)
        porous   : (0 0 0)

forceCoeffs forceCoeffs output:
    Cm    = -0.00021747
    Cd    = 0.0114894
    Cl    = 0.204714
    Cl(f) = 0.10214
    Cl(r) = 0.102575

nearWallFields near output:
    Sampling fields to 40
Time = 41

smoothSolver:  Solving for Ux, Initial residual = 0.0160461, Final residual = 0.000553354, No Iterations 1
smoothSolver:  Solving for Uz, Initial residual = 0.00709463, Final residual = 0.000285406, No Iterations 1
GAMG:  Solving for p, Initial residual = 0.0558696, Final residual = 0.000547595, No Iterations 23
time step continuity errors : sum local = 2.49349e-05, global = 2.65578e-09, cumulative = -2.8031e-08
smoothSolver:  Solving for omega, Initial residual = 9.58267e-05, Final residual = 1.97325e-06, No Iterations 2
smoothSolver:  Solving for k, Initial residual = 0.000282354, Final residual = 9.17932e-06, No Iterations 2
ExecutionTime = 5.79 s  ClockTime = 6 s

forces forceCoeffs1 output:
    sum of forces:
        pressure : (-15.3387 -4.09981e-19 1037.71)
        viscous  : (18.8308 -6.22794e-20 0.0818261)
        porous   : (0 0 0)
    sum of moments:
        pressure : (-518.853 -1.28476 -7.66933)
        viscous  : (-0.0409131 -0.227452 9.41538)
        porous   : (0 0 0)

forceCoeffs forceCoeffs output:
    Cm    = -0.000302442
    Cd    = 0.0115602
    Cl    = 0.207237
    Cl(f) = 0.103316
    Cl(r) = 0.103921

nearWallFields near output:
    Sampling fields to 41
Time = 42

smoothSolver:  Solving for Ux, Initial residual = 0.0157593, Final residual = 0.00054851, No Iterations 1
smoothSolver:  Solving for Uz, Initial residual = 0.0069825, Final residual = 0.000277216, No Iterations 1
GAMG:  Solving for p, Initial residual = 0.053585, Final residual = 0.000511954, No Iterations 22
time step continuity errors : sum local = 2.33795e-05, global = -3.4928e-08, cumulative = -6.29591e-08
smoothSolver:  Solving for omega, Initial residual = 9.06974e-05, Final residual = 1.86607e-06, No Iterations 2
smoothSolver:  Solving for k, Initial residual = 0.00027006, Final residual = 9.02098e-06, No Iterations 2
ExecutionTime = 5.91 s  ClockTime = 6 s

forces forceCoeffs1 output:
    sum of forces:
        pressure : (-15.9603 -4.41102e-19 1051.07)
        viscous  : (18.9057 -6.17815e-20 0.0704433)
        porous   : (0 0 0)
    sum of moments:
        pressure : (-525.533 -2.09743 -7.98014)
        viscous  : (-0.0352216 -0.225111 9.45286)
        porous   : (0 0 0)

forceCoeffs forceCoeffs output:
    Cm    = -0.000464508
    Cd    = 0.0115908
    Cl    = 0.209908
    Cl(f) = 0.10449
    Cl(r) = 0.105419

nearWallFields near output:
    Sampling fields to 42
Time = 43

smoothSolver:  Solving for Ux, Initial residual = 0.0154797, Final residual = 0.000543037, No Iterations 1
smoothSolver:  Solving for Uz, Initial residual = 0.00688525, Final residual = 0.000268089, No Iterations 1
GAMG:  Solving for p, Initial residual = 0.0520327, Final residual = 0.000519949, No Iterations 21
time step continuity errors : sum local = 2.36872e-05, global = 3.46703e-08, cumulative = -2.82888e-08
smoothSolver:  Solving for omega, Initial residual = 8.60153e-05, Final residual = 1.77985e-06, No Iterations 2
smoothSolver:  Solving for k, Initial residual = 0.000257774, Final residual = 8.83723e-06, No Iterations 2
ExecutionTime = 6.04 s  ClockTime = 6 s

forces forceCoeffs1 output:
    sum of forces:
        pressure : (-16.7831 -3.21022e-19 1064.94)
        viscous  : (19.0148 -6.55443e-20 0.0587486)
        porous   : (0 0 0)
    sum of moments:
        pressure : (-532.471 -3.19219 -8.39154)
        viscous  : (-0.0293743 -0.222037 9.5074)
        porous   : (0 0 0)

forceCoeffs forceCoeffs output:
    Cm    = -0.000682846
    Cd    = 0.0115933
    Cl    = 0.212685
    Cl(f) = 0.10566
    Cl(r) = 0.107025

nearWallFields near output:
    Sampling fields to 43
Time = 44

smoothSolver:  Solving for Ux, Initial residual = 0.0152473, Final residual = 0.00053618, No Iterations 1
smoothSolver:  Solving for Uz, Initial residual = 0.00680263, Final residual = 0.000259594, No Iterations 1
GAMG:  Solving for p, Initial residual = 0.050658, Final residual = 0.000470248, No Iterations 23
time step continuity errors : sum local = 2.13265e-05, global = 3.03866e-09, cumulative = -2.52501e-08
smoothSolver:  Solving for omega, Initial residual = 8.15004e-05, Final residual = 1.7011e-06, No Iterations 2
smoothSolver:  Solving for k, Initial residual = 0.000245939, Final residual = 8.63318e-06, No Iterations 2
ExecutionTime = 6.17 s  ClockTime = 6 s

forces forceCoeffs1 output:
    sum of forces:
        pressure : (-17.5795 -1.2047e-19 1078.98)
        viscous  : (19.1498 -7.15279e-20 0.0470304)
        porous   : (0 0 0)
    sum of moments:
        pressure : (-539.492 -4.37472 -8.78973)
        viscous  : (-0.0235152 -0.21835 9.57491)
        porous   : (0 0 0)

forceCoeffs forceCoeffs output:
    Cm    = -0.000918614
    Cd    = 0.0116081
    Cl    = 0.215494
    Cl(f) = 0.106828
    Cl(r) = 0.108666

nearWallFields near output:
    Sampling fields to 44
Time = 45

smoothSolver:  Solving for Ux, Initial residual = 0.0149968, Final residual = 0.000527596, No Iterations 1
smoothSolver:  Solving for Uz, Initial residual = 0.00672899, Final residual = 0.00025226, No Iterations 1
GAMG:  Solving for p, Initial residual = 0.0491947, Final residual = 0.000456726, No Iterations 22
time step continuity errors : sum local = 2.06674e-05, global = -1.02074e-09, cumulative = -2.62708e-08
smoothSolver:  Solving for omega, Initial residual = 7.76459e-05, Final residual = 1.62372e-06, No Iterations 2
smoothSolver:  Solving for k, Initial residual = 0.000235586, Final residual = 8.44196e-06, No Iterations 2
ExecutionTime = 6.27 s  ClockTime = 6 s

forces forceCoeffs1 output:
    sum of forces:
        pressure : (-18.2068 4.19121e-20 1092.89)
        viscous  : (19.3041 -7.63632e-20 0.0354761)
        porous   : (0 0 0)
    sum of moments:
        pressure : (-546.444 -5.38667 -9.10339)
        viscous  : (-0.017738 -0.214345 9.65205)
        porous   : (0 0 0)

forceCoeffs forceCoeffs output:
    Cm    = -0.0011202
    Cd    = 0.011659
    Cl    = 0.218274
    Cl(f) = 0.108017
    Cl(r) = 0.110257

nearWallFields near output:
    Sampling fields to 45
Time = 46

smoothSolver:  Solving for Ux, Initial residual = 0.0147099, Final residual = 0.000518355, No Iterations 1
smoothSolver:  Solving for Uz, Initial residual = 0.0066623, Final residual = 0.000246562, No Iterations 1
GAMG:  Solving for p, Initial residual = 0.0474389, Final residual = 0.00046991, No Iterations 21
time step continuity errors : sum local = 2.13012e-05, global = 2.58919e-09, cumulative = -2.36816e-08
smoothSolver:  Solving for omega, Initial residual = 7.41535e-05, Final residual = 1.55523e-06, No Iterations 2
smoothSolver:  Solving for k, Initial residual = 0.000225816, Final residual = 8.27018e-06, No Iterations 2
ExecutionTime = 6.39 s  ClockTime = 6 s

forces forceCoeffs1 output:
    sum of forces:
        pressure : (-18.7095 8.26934e-20 1106.55)
        viscous  : (19.471 -7.7786e-20 0.024518)
        porous   : (0 0 0)
    sum of moments:
        pressure : (-553.277 -6.08411 -9.35475)
        viscous  : (-0.012259 -0.21033 9.73551)
        porous   : (0 0 0)

forceCoeffs forceCoeffs output:
    Cm    = -0.00125889
    Cd    = 0.0117349
    Cl    = 0.221004
    Cl(f) = 0.109243
    Cl(r) = 0.111761

nearWallFields near output:
    Sampling fields to 46
Time = 47

smoothSolver:  Solving for Ux, Initial residual = 0.0144172, Final residual = 0.000508404, No Iterations 1
smoothSolver:  Solving for Uz, Initial residual = 0.00662172, Final residual = 0.000241776, No Iterations 1
GAMG:  Solving for p, Initial residual = 0.0456602, Final residual = 0.000448134, No Iterations 21
time step continuity errors : sum local = 2.0392e-05, global = 5.21371e-10, cumulative = -2.31603e-08
smoothSolver:  Solving for omega, Initial residual = 7.10506e-05, Final residual = 1.49725e-06, No Iterations 2
smoothSolver:  Solving for k, Initial residual = 0.000216237, Final residual = 8.11028e-06, No Iterations 2
ExecutionTime = 6.5 s  ClockTime = 6 s

forces forceCoeffs1 output:
    sum of forces:
        pressure : (-19.2503 -8.56191e-21 1120.02)
        viscous  : (19.645 -7.56349e-20 0.0144714)
        porous   : (0 0 0)
    sum of moments:
        pressure : (-560.009 -6.46892 -9.62516)
        viscous  : (-0.00723572 -0.206655 9.82248)
        porous   : (0 0 0)

forceCoeffs forceCoeffs output:
    Cm    = -0.00133512
    Cd    = 0.0118024
    Cl    = 0.223695
    Cl(f) = 0.110513
    Cl(r) = 0.113183

nearWallFields near output:
    Sampling fields to 47
Time = 48

smoothSolver:  Solving for Ux, Initial residual = 0.0141461, Final residual = 0.000498365, No Iterations 1
smoothSolver:  Solving for Uz, Initial residual = 0.00658056, Final residual = 0.000236798, No Iterations 1
GAMG:  Solving for p, Initial residual = 0.0438395, Final residual = 0.000432462, No Iterations 21
time step continuity errors : sum local = 1.97419e-05, global = 6.69844e-11, cumulative = -2.30933e-08
smoothSolver:  Solving for omega, Initial residual = 6.78686e-05, Final residual = 1.44344e-06, No Iterations 2
smoothSolver:  Solving for k, Initial residual = 0.000207144, Final residual = 7.95354e-06, No Iterations 2
ExecutionTime = 6.62 s  ClockTime = 6 s

forces forceCoeffs1 output:
    sum of forces:
        pressure : (-19.9466 -1.70597e-19 1133.34)
        viscous  : (19.8207 -7.16398e-20 0.00565215)
        porous   : (0 0 0)
    sum of moments:
        pressure : (-566.669 -6.67083 -9.97331)
        viscous  : (-0.00282608 -0.20355 9.91033)
        porous   : (0 0 0)

forceCoeffs forceCoeffs output:
    Cm    = -0.00137488
    Cd    = 0.0118378
    Cl    = 0.226359
    Cl(f) = 0.111805
    Cl(r) = 0.114555

nearWallFields near output:
    Sampling fields to 48
Time = 49

smoothSolver:  Solving for Ux, Initial residual = 0.0139108, Final residual = 0.000488279, No Iterations 1
smoothSolver:  Solving for Uz, Initial residual = 0.00653505, Final residual = 0.000231507, No Iterations 1
GAMG:  Solving for p, Initial residual = 0.0422917, Final residual = 0.000407985, No Iterations 20
time step continuity errors : sum local = 1.86443e-05, global = 2.54236e-11, cumulative = -2.30679e-08
smoothSolver:  Solving for omega, Initial residual = 6.4836e-05, Final residual = 1.39283e-06, No Iterations 2
smoothSolver:  Solving for k, Initial residual = 0.000197938, Final residual = 7.796e-06, No Iterations 2
ExecutionTime = 6.71 s  ClockTime = 7 s

forces forceCoeffs1 output:
    sum of forces:
        pressure : (-20.7732 -3.07612e-19 1146.62)
        viscous  : (19.994 -6.83182e-20 -0.0018421)
        porous   : (0 0 0)
    sum of moments:
        pressure : (-573.311 -6.90409 -10.3866)
        viscous  : (0.000921048 -0.20112 9.99702)
        porous   : (0 0 0)

forceCoeffs forceCoeffs output:
    Cm    = -0.00142104
    Cd    = 0.0118463
    Cl    = 0.229018
    Cl(f) = 0.113088
    Cl(r) = 0.11593

nearWallFields near output:
    Sampling fields to 49
Time = 50

smoothSolver:  Solving for Ux, Initial residual = 0.0136572, Final residual = 0.000477143, No Iterations 1
smoothSolver:  Solving for Uz, Initial residual = 0.00648997, Final residual = 0.000227512, No Iterations 1
GAMG:  Solving for p, Initial residual = 0.0409832, Final residual = 0.000391482, No Iterations 20
time step continuity errors : sum local = 1.78794e-05, global = -1.25072e-09, cumulative = -2.43186e-08
smoothSolver:  Solving for omega, Initial residual = 6.18147e-05, Final residual = 1.34229e-06, No Iterations 2
smoothSolver:  Solving for k, Initial residual = 0.000189082, Final residual = 7.64371e-06, No Iterations 2
ExecutionTime = 6.83 s  ClockTime = 7 s

forces forceCoeffs1 output:
    sum of forces:
        pressure : (-21.6054 -3.49131e-19 1159.99)
        viscous  : (20.1621 -6.74781e-20 -0.00822935)
        porous   : (0 0 0)
    sum of moments:
        pressure : (-579.996 -7.33041 -10.8027)
        viscous  : (0.00411468 -0.199286 10.0811)
        porous   : (0 0 0)

forceCoeffs forceCoeffs output:
    Cm    = -0.00150594
    Cd    = 0.0118535
    Cl    = 0.231694
    Cl(f) = 0.114341
    Cl(r) = 0.117353

nearWallFields near output:
    Sampling fields to 50
Time = 51

smoothSolver:  Solving for Ux, Initial residual = 0.0134001, Final residual = 0.000466452, No Iterations 1
smoothSolver:  Solving for Uz, Initial residual = 0.00646869, Final residual = 0.000225581, No Iterations 1
GAMG:  Solving for p, Initial residual = 0.0396023, Final residual = 0.000377348, No Iterations 20
time step continuity errors : sum local = 1.72256e-05, global = -8.65486e-10, cumulative = -2.51841e-08
smoothSolver:  Solving for omega, Initial residual = 5.89827e-05, Final residual = 1.28611e-06, No Iterations 2
smoothSolver:  Solving for k, Initial residual = 0.00018035, Final residual = 7.49862e-06, No Iterations 2
ExecutionTime = 6.94 s  ClockTime = 7 s

forces forceCoeffs1 output:
    sum of forces:
        pressure : (-22.3365 -2.80415e-19 1173.51)
        viscous  : (20.3219 -6.95933e-20 -0.0136969)
        porous   : (0 0 0)
    sum of moments:
        pressure : (-586.756 -7.96045 -11.1683)
        viscous  : (0.00684846 -0.197885 10.161)
        porous   : (0 0 0)

forceCoeffs forceCoeffs output:
    Cm    = -0.00163167
    Cd    = 0.0118809
    Cl    = 0.234399
    Cl(f) = 0.115568
    Cl(r) = 0.118831

nearWallFields near output:
    Sampling fields to 51
Time = 52

smoothSolver:  Solving for Ux, Initial residual = 0.0131591, Final residual = 0.000457452, No Iterations 1
smoothSolver:  Solving for Uz, Initial residual = 0.00646794, Final residual = 0.000224914, No Iterations 1
GAMG:  Solving for p, Initial residual = 0.038097, Final residual = 0.000353122, No Iterations 20
time step continuity errors : sum local = 1.6127e-05, global = -2.15783e-11, cumulative = -2.52057e-08
smoothSolver:  Solving for omega, Initial residual = 5.61656e-05, Final residual = 1.22775e-06, No Iterations 2
smoothSolver:  Solving for k, Initial residual = 0.000171878, Final residual = 7.34507e-06, No Iterations 2
ExecutionTime = 7.06 s  ClockTime = 7 s

forces forceCoeffs1 output:
    sum of forces:
        pressure : (-22.9629 -1.46628e-19 1187.06)
        viscous  : (20.4709 -7.35697e-20 -0.0183559)
        porous   : (0 0 0)
    sum of moments:
        pressure : (-593.531 -8.61299 -11.4815)
        viscous  : (0.00917795 -0.196826 10.2355)
        porous   : (0 0 0)

forceCoeffs forceCoeffs output:
    Cm    = -0.00176196
    Cd    = 0.0119273
    Cl    = 0.23711
    Cl(f) = 0.116793
    Cl(r) = 0.120317

nearWallFields near output:
    Sampling fields to 52
Time = 53

smoothSolver:  Solving for Ux, Initial residual = 0.0129553, Final residual = 0.000448621, No Iterations 1
smoothSolver:  Solving for Uz, Initial residual = 0.00647172, Final residual = 0.000224327, No Iterations 1
GAMG:  Solving for p, Initial residual = 0.0367762, Final residual = 0.000356182, No Iterations 19
time step continuity errors : sum local = 1.63008e-05, global = -1.28467e-09, cumulative = -2.64903e-08
smoothSolver:  Solving for omega, Initial residual = 5.348e-05, Final residual = 1.16942e-06, No Iterations 2
smoothSolver:  Solving for k, Initial residual = 0.000164279, Final residual = 7.18222e-06, No Iterations 2
ExecutionTime = 7.15 s  ClockTime = 7 s

forces forceCoeffs1 output:
    sum of forces:
        pressure : (-23.577 -2.42246e-20 1200.31)
        viscous  : (20.6081 -7.75153e-20 -0.0222866)
        porous   : (0 0 0)
    sum of moments:
        pressure : (-600.156 -8.99539 -11.7885)
        viscous  : (0.0111433 -0.196152 10.304)
        porous   : (0 0 0)

forceCoeffs forceCoeffs output:
    Cm    = -0.00183831
    Cd    = 0.0119707
    Cl    = 0.23976
    Cl(f) = 0.118042
    Cl(r) = 0.121718

nearWallFields near output:
    Sampling fields to 53
Time = 54

smoothSolver:  Solving for Ux, Initial residual = 0.0127484, Final residual = 0.000439136, No Iterations 1
smoothSolver:  Solving for Uz, Initial residual = 0.00646463, Final residual = 0.000223451, No Iterations 1
GAMG:  Solving for p, Initial residual = 0.0354577, Final residual = 0.000339234, No Iterations 19
time step continuity errors : sum local = 1.55707e-05, global = -1.03323e-09, cumulative = -2.75236e-08
smoothSolver:  Solving for omega, Initial residual = 5.09286e-05, Final residual = 1.11654e-06, No Iterations 2
smoothSolver:  Solving for k, Initial residual = 0.000157083, Final residual = 7.01732e-06, No Iterations 2
ExecutionTime = 7.25 s  ClockTime = 7 s

forces forceCoeffs1 output:
    sum of forces:
        pressure : (-24.284 2.70105e-20 1212.88)
        viscous  : (20.7329 -7.97723e-20 -0.0253942)
        porous   : (0 0 0)
    sum of moments:
        pressure : (-606.441 -8.88091 -12.142)
        viscous  : (0.0126971 -0.195994 10.3665)
        porous   : (0 0 0)

forceCoeffs forceCoeffs output:
    Cm    = -0.00181538
    Cd    = 0.011986
    Cl    = 0.242276
    Cl(f) = 0.119323
    Cl(r) = 0.122953

nearWallFields near output:
    Sampling fields to 54
Time = 55

smoothSolver:  Solving for Ux, Initial residual = 0.0125317, Final residual = 0.000429064, No Iterations 1
smoothSolver:  Solving for Uz, Initial residual = 0.00646463, Final residual = 0.000223331, No Iterations 1
GAMG:  Solving for p, Initial residual = 0.0339778, Final residual = 0.000314524, No Iterations 19
time step continuity errors : sum local = 1.44715e-05, global = 5.62737e-10, cumulative = -2.69608e-08
smoothSolver:  Solving for omega, Initial residual = 4.85339e-05, Final residual = 1.07413e-06, No Iterations 2
smoothSolver:  Solving for k, Initial residual = 0.000150116, Final residual = 6.85506e-06, No Iterations 2
ExecutionTime = 7.33 s  ClockTime = 7 s

forces forceCoeffs1 output:
    sum of forces:
        pressure : (-25.1227 -1.3429e-20 1224.57)
        viscous  : (20.8459 -7.95316e-20 -0.0275481)
        porous   : (0 0 0)
    sum of moments:
        pressure : (-612.284 -8.23368 -12.5614)
        viscous  : (0.013774 -0.196433 10.4229)
        porous   : (0 0 0)

forceCoeffs forceCoeffs output:
    Cm    = -0.00168602
    Cd    = 0.0119633
    Cl    = 0.244617
    Cl(f) = 0.120623
    Cl(r) = 0.123995

nearWallFields near output:
    Sampling fields to 55
Time = 56

smoothSolver:  Solving for Ux, Initial residual = 0.0123232, Final residual = 0.000418957, No Iterations 1
smoothSolver:  Solving for Uz, Initial residual = 0.00648232, Final residual = 0.000224988, No Iterations 1
GAMG:  Solving for p, Initial residual = 0.0327857, Final residual = 0.000312035, No Iterations 18
time step continuity errors : sum local = 1.43796e-05, global = 2.00466e-10, cumulative = -2.67604e-08
smoothSolver:  Solving for omega, Initial residual = 4.63297e-05, Final residual = 1.04431e-06, No Iterations 2
smoothSolver:  Solving for k, Initial residual = 0.000143471, Final residual = 6.70108e-06, No Iterations 2
ExecutionTime = 7.43 s  ClockTime = 7 s

forces forceCoeffs1 output:
    sum of forces:
        pressure : (-26.035 -1.17638e-19 1235.52)
        viscous  : (20.948 -7.72976e-20 -0.0287557)
        porous   : (0 0 0)
    sum of moments:
        pressure : (-617.76 -7.27052 -13.0175)
        viscous  : (0.0143779 -0.197429 10.474)
        porous   : (0 0 0)

forceCoeffs forceCoeffs output:
    Cm    = -0.00149359
    Cd    = 0.0119161
    Cl    = 0.246813
    Cl(f) = 0.121913
    Cl(r) = 0.1249

nearWallFields near output:
    Sampling fields to 56
Time = 57

smoothSolver:  Solving for Ux, Initial residual = 0.0121641, Final residual = 0.000410064, No Iterations 1
smoothSolver:  Solving for Uz, Initial residual = 0.00652169, Final residual = 0.000227537, No Iterations 1
GAMG:  Solving for p, Initial residual = 0.0314731, Final residual = 0.000291906, No Iterations 18
time step continuity errors : sum local = 1.34663e-05, global = 8.88702e-11, cumulative = -2.66715e-08
smoothSolver:  Solving for omega, Initial residual = 4.42641e-05, Final residual = 1.01675e-06, No Iterations 2
smoothSolver:  Solving for k, Initial residual = 0.000137164, Final residual = 6.55716e-06, No Iterations 2
ExecutionTime = 7.54 s  ClockTime = 7 s

forces forceCoeffs1 output:
    sum of forces:
        pressure : (-26.921 -2.31942e-19 1246.12)
        viscous  : (21.0403 -7.43511e-20 -0.0291962)
        porous   : (0 0 0)
    sum of moments:
        pressure : (-623.058 -6.29873 -13.4605)
        viscous  : (0.0145981 -0.198825 10.5202)
        porous   : (0 0 0)

forceCoeffs forceCoeffs output:
    Cm    = -0.00129951
    Cd    = 0.0118685
    Cl    = 0.248938
    Cl(f) = 0.123169
    Cl(r) = 0.125768

nearWallFields near output:
    Sampling fields to 57
Time = 58

smoothSolver:  Solving for Ux, Initial residual = 0.012009, Final residual = 0.000402406, No Iterations 1
smoothSolver:  Solving for Uz, Initial residual = 0.00656653, Final residual = 0.000230926, No Iterations 1
GAMG:  Solving for p, Initial residual = 0.0302499, Final residual = 0.000291998, No Iterations 18
time step continuity errors : sum local = 1.3484e-05, global = 2.22908e-10, cumulative = -2.64486e-08
smoothSolver:  Solving for omega, Initial residual = 4.22917e-05, Final residual = 9.91567e-07, No Iterations 2
smoothSolver:  Solving for k, Initial residual = 0.000131405, Final residual = 6.44103e-06, No Iterations 2
ExecutionTime = 7.68 s  ClockTime = 8 s

forces forceCoeffs1 output:
    sum of forces:
        pressure : (-27.7085 -3.02206e-19 1256.77)
        viscous  : (21.124 -7.22132e-20 -0.029161)
        porous   : (0 0 0)
    sum of moments:
        pressure : (-628.383 -5.56593 -13.8542)
        viscous  : (0.0145805 -0.200429 10.562)
        porous   : (0 0 0)

forceCoeffs forceCoeffs output:
    Cm    = -0.00115327
    Cd    = 0.0118395
    Cl    = 0.251072
    Cl(f) = 0.124383
    Cl(r) = 0.126689

nearWallFields near output:
    Sampling fields to 58
Time = 59

smoothSolver:  Solving for Ux, Initial residual = 0.0118344, Final residual = 0.000395068, No Iterations 1
smoothSolver:  Solving for Uz, Initial residual = 0.00661756, Final residual = 0.000235392, No Iterations 1
GAMG:  Solving for p, Initial residual = 0.0291591, Final residual = 0.000280798, No Iterations 18
time step continuity errors : sum local = 1.29871e-05, global = 2.07838e-10, cumulative = -2.62407e-08
smoothSolver:  Solving for omega, Initial residual = 4.04389e-05, Final residual = 9.69391e-07, No Iterations 2
smoothSolver:  Solving for k, Initial residual = 0.000125868, Final residual = 6.33074e-06, No Iterations 2
ExecutionTime = 7.78 s  ClockTime = 8 s

forces forceCoeffs1 output:
    sum of forces:
        pressure : (-28.4003 -3.00161e-19 1267.61)
        viscous  : (21.1998 -7.18786e-20 -0.0289669)
        porous   : (0 0 0)
    sum of moments:
        pressure : (-633.806 -5.09782 -14.2001)
        viscous  : (0.0144835 -0.202108 10.5999)
        porous   : (0 0 0)

forceCoeffs forceCoeffs output:
    Cm    = -0.00105999
    Cd    = 0.01183
    Cl    = 0.253245
    Cl(f) = 0.125562
    Cl(r) = 0.127682

nearWallFields near output:
    Sampling fields to 59
Time = 60

smoothSolver:  Solving for Ux, Initial residual = 0.0116623, Final residual = 0.000387758, No Iterations 1
smoothSolver:  Solving for Uz, Initial residual = 0.00667259, Final residual = 0.000240127, No Iterations 1
GAMG:  Solving for p, Initial residual = 0.0280819, Final residual = 0.000258063, No Iterations 18
time step continuity errors : sum local = 1.19643e-05, global = 3.10365e-10, cumulative = -2.59304e-08
smoothSolver:  Solving for omega, Initial residual = 3.87351e-05, Final residual = 9.51945e-07, No Iterations 2
smoothSolver:  Solving for k, Initial residual = 0.000120901, Final residual = 6.21741e-06, No Iterations 2
ExecutionTime = 7.92 s  ClockTime = 8 s

forces forceCoeffs1 output:
    sum of forces:
        pressure : (-29.0642 -2.32595e-19 1278.44)
        viscous  : (21.2683 -7.34372e-20 -0.0287999)
        porous   : (0 0 0)
    sum of moments:
        pressure : (-639.218 -4.67294 -14.5321)
        viscous  : (0.0144 -0.203813 10.6341)
        porous   : (0 0 0)

forceCoeffs forceCoeffs output:
    Cm    = -0.000975351
    Cd    = 0.0118243
    Cl    = 0.255413
    Cl(f) = 0.126731
    Cl(r) = 0.128682

nearWallFields near output:
    Sampling fields to 60
Time = 61

smoothSolver:  Solving for Ux, Initial residual = 0.0115265, Final residual = 0.000381052, No Iterations 1
smoothSolver:  Solving for Uz, Initial residual = 0.00673225, Final residual = 0.00024432, No Iterations 1
GAMG:  Solving for p, Initial residual = 0.0270189, Final residual = 0.000259588, No Iterations 17
time step continuity errors : sum local = 1.20684e-05, global = 1.76505e-10, cumulative = -2.57539e-08
smoothSolver:  Solving for omega, Initial residual = 3.71533e-05, Final residual = 9.40236e-07, No Iterations 2
smoothSolver:  Solving for k, Initial residual = 0.000116587, Final residual = 6.12512e-06, No Iterations 2
ExecutionTime = 8.04 s  ClockTime = 8 s

forces forceCoeffs1 output:
    sum of forces:
        pressure : (-29.7827 -1.35174e-19 1288.76)
        viscous  : (21.3298 -7.60804e-20 -0.0286039)
        porous   : (0 0 0)
    sum of moments:
        pressure : (-644.382 -3.96455 -14.8913)
        viscous  : (0.014302 -0.205597 10.6649)
        porous   : (0 0 0)

forceCoeffs forceCoeffs output:
    Cm    = -0.000834029
    Cd    = 0.0118012
    Cl    = 0.257482
    Cl(f) = 0.127907
    Cl(r) = 0.129575

nearWallFields near output:
    Sampling fields to 61
Time = 62

smoothSolver:  Solving for Ux, Initial residual = 0.0114109, Final residual = 0.000375139, No Iterations 1
smoothSolver:  Solving for Uz, Initial residual = 0.00679264, Final residual = 0.00024823, No Iterations 1
GAMG:  Solving for p, Initial residual = 0.026023, Final residual = 0.000244376, No Iterations 17
time step continuity errors : sum local = 1.13891e-05, global = 5.78097e-10, cumulative = -2.51758e-08
smoothSolver:  Solving for omega, Initial residual = 3.56797e-05, Final residual = 9.31611e-07, No Iterations 2
smoothSolver:  Solving for k, Initial residual = 0.000112882, Final residual = 6.05877e-06, No Iterations 2
ExecutionTime = 8.16 s  ClockTime = 8 s

forces forceCoeffs1 output:
    sum of forces:
        pressure : (-30.6038 -4.90171e-20 1298.15)
        viscous  : (21.3853 -7.86687e-20 -0.0282473)
        porous   : (0 0 0)
    sum of moments:
        pressure : (-649.075 -2.74557 -15.3019)
        viscous  : (0.0141237 -0.207548 10.6927)
        porous   : (0 0 0)

forceCoeffs forceCoeffs output:
    Cm    = -0.000590623
    Cd    = 0.0117465
    Cl    = 0.259365
    Cl(f) = 0.129092
    Cl(r) = 0.130273

nearWallFields near output:
    Sampling fields to 62
Time = 63

smoothSolver:  Solving for Ux, Initial residual = 0.0112894, Final residual = 0.000369336, No Iterations 1
smoothSolver:  Solving for Uz, Initial residual = 0.00685356, Final residual = 0.000252684, No Iterations 1
GAMG:  Solving for p, Initial residual = 0.0249128, Final residual = 0.000226062, No Iterations 17
time step continuity errors : sum local = 1.05542e-05, global = 4.00204e-10, cumulative = -2.47756e-08
smoothSolver:  Solving for omega, Initial residual = 3.42932e-05, Final residual = 9.22435e-07, No Iterations 2
smoothSolver:  Solving for k, Initial residual = 0.000109692, Final residual = 6.01443e-06, No Iterations 2
ExecutionTime = 8.25 s  ClockTime = 8 s

forces forceCoeffs1 output:
    sum of forces:
        pressure : (-31.5077 -6.13118e-21 1306.47)
        viscous  : (21.4358 -8.01876e-20 -0.0276492)
        porous   : (0 0 0)
    sum of moments:
        pressure : (-653.235 -1.03248 -15.7538)
        viscous  : (0.0138246 -0.209713 10.7179)
        porous   : (0 0 0)

forceCoeffs forceCoeffs output:
    Cm    = -0.000248438
    Cd    = 0.0116632
    Cl    = 0.261036
    Cl(f) = 0.130269
    Cl(r) = 0.130766

nearWallFields near output:
    Sampling fields to 63
Time = 64

smoothSolver:  Solving for Ux, Initial residual = 0.0111629, Final residual = 0.000363258, No Iterations 1
smoothSolver:  Solving for Uz, Initial residual = 0.00692235, Final residual = 0.000258721, No Iterations 1
GAMG:  Solving for p, Initial residual = 0.0239822, Final residual = 0.000223434, No Iterations 16
time step continuity errors : sum local = 1.04434e-05, global = 3.03054e-10, cumulative = -2.44725e-08
smoothSolver:  Solving for omega, Initial residual = 3.31201e-05, Final residual = 9.1403e-07, No Iterations 2
smoothSolver:  Solving for k, Initial residual = 0.000106854, Final residual = 5.98222e-06, No Iterations 2
ExecutionTime = 8.36 s  ClockTime = 8 s

forces forceCoeffs1 output:
    sum of forces:
        pressure : (-32.423 -1.55012e-20 1314.03)
        viscous  : (21.4827 -8.02427e-20 -0.0268788)
        porous   : (0 0 0)
    sum of moments:
        pressure : (-657.017 0.902902 -16.2115)
        viscous  : (0.0134394 -0.212035 10.7413)
        porous   : (0 0 0)

forceCoeffs forceCoeffs output:
    Cm    = 0.000138173
    Cd    = 0.0115689
    Cl    = 0.262556
    Cl(f) = 0.131416
    Cl(r) = 0.13114

nearWallFields near output:
    Sampling fields to 64
Time = 65

smoothSolver:  Solving for Ux, Initial residual = 0.0110514, Final residual = 0.00035697, No Iterations 1
smoothSolver:  Solving for Uz, Initial residual = 0.00700425, Final residual = 0.000265216, No Iterations 1
GAMG:  Solving for p, Initial residual = 0.0231466, Final residual = 0.000228539, No Iterations 15
time step continuity errors : sum local = 1.06923e-05, global = -6.51165e-11, cumulative = -2.45376e-08
smoothSolver:  Solving for omega, Initial residual = 3.21173e-05, Final residual = 9.06665e-07, No Iterations 2
smoothSolver:  Solving for k, Initial residual = 0.000104256, Final residual = 5.96209e-06, No Iterations 2
ExecutionTime = 8.49 s  ClockTime = 8 s

forces forceCoeffs1 output:
    sum of forces:
[...]
        porous   : (0 0 0)

forceCoeffs forceCoeffs output:
    Cm    = 0.00341187
    Cd    = 0.00883358
    Cl    = 0.317606
    Cl(f) = 0.162215
    Cl(r) = 0.155391

nearWallFields near output:
    Sampling fields to 381
Time = 382

smoothSolver:  Solving for Ux, Initial residual = 1.35662e-05, Final residual = 1.19682e-06, No Iterations 1
smoothSolver:  Solving for Uz, Initial residual = 6.16688e-06, Final residual = 4.82378e-07, No Iterations 1
GAMG:  Solving for p, Initial residual = 6.47744e-06, Final residual = 9.26289e-08, No Iterations 14
time step continuity errors : sum local = 4.37793e-09, global = -3.08238e-12, cumulative = -2.13917e-08
smoothSolver:  Solving for omega, Initial residual = 7.31391e-08, Final residual = 8.52841e-09, No Iterations 1
smoothSolver:  Solving for k, Initial residual = 2.35731e-07, Final residual = 1.13373e-08, No Iterations 2
ExecutionTime = 39.95 s  ClockTime = 40 s

forces forceCoeffs1 output:
    sum of forces:
        pressure : (-62.1476 -1.05154e-19 1588.29)
        viscous  : (23.1415 -9.40366e-20 -0.0984958)
        porous   : (0 0 0)
    sum of moments:
        pressure : (-794.144 17.1555 -31.0738)
        viscous  : (0.0492479 -0.0963744 11.5707)
        porous   : (0 0 0)

forceCoeffs forceCoeffs output:
    Cm    = 0.00341182
    Cd    = 0.00883339
    Cl    = 0.317611
    Cl(f) = 0.162217
    Cl(r) = 0.155394

nearWallFields near output:
    Sampling fields to 382
Time = 383

smoothSolver:  Solving for Ux, Initial residual = 1.32549e-05, Final residual = 1.1812e-06, No Iterations 1
smoothSolver:  Solving for Uz, Initial residual = 6.08733e-06, Final residual = 4.76614e-07, No Iterations 1
GAMG:  Solving for p, Initial residual = 6.39083e-06, Final residual = 9.1143e-08, No Iterations 14
time step continuity errors : sum local = 4.30771e-09, global = -3.04217e-12, cumulative = -2.13948e-08
smoothSolver:  Solving for omega, Initial residual = 7.18539e-08, Final residual = 8.42335e-09, No Iterations 1
smoothSolver:  Solving for k, Initial residual = 2.33259e-07, Final residual = 1.12514e-08, No Iterations 2
ExecutionTime = 40.04 s  ClockTime = 40 s

forces forceCoeffs1 output:
    sum of forces:
        pressure : (-62.1498 -1.05176e-19 1588.31)
        viscous  : (23.1416 -9.40373e-20 -0.0984964)
        porous   : (0 0 0)
    sum of moments:
        pressure : (-794.155 17.1552 -31.0749)
        viscous  : (0.0492482 -0.0963631 11.5708)
        porous   : (0 0 0)

forceCoeffs forceCoeffs output:
    Cm    = 0.00341176
    Cd    = 0.00883321
    Cl    = 0.317615
    Cl(f) = 0.162219
    Cl(r) = 0.155396

nearWallFields near output:
    Sampling fields to 383
Time = 384

smoothSolver:  Solving for Ux, Initial residual = 1.29543e-05, Final residual = 1.16536e-06, No Iterations 1
smoothSolver:  Solving for Uz, Initial residual = 6.01304e-06, Final residual = 4.71449e-07, No Iterations 1
GAMG:  Solving for p, Initial residual = 6.3139e-06, Final residual = 9.94993e-08, No Iterations 13
time step continuity errors : sum local = 4.70267e-09, global = -4.0166e-12, cumulative = -2.13988e-08
smoothSolver:  Solving for omega, Initial residual = 7.05521e-08, Final residual = 8.31394e-09, No Iterations 1
smoothSolver:  Solving for k, Initial residual = 2.30667e-07, Final residual = 1.11522e-08, No Iterations 2
ExecutionTime = 40.13 s  ClockTime = 40 s

forces forceCoeffs1 output:
    sum of forces:
        pressure : (-62.1519 -1.05196e-19 1588.33)
        viscous  : (23.1417 -9.40379e-20 -0.0984968)
        porous   : (0 0 0)
    sum of moments:
        pressure : (-794.166 17.1548 -31.076)
        viscous  : (0.0492484 -0.0963517 11.5709)
        porous   : (0 0 0)

forceCoeffs forceCoeffs output:
    Cm    = 0.00341169
    Cd    = 0.00883303
    Cl    = 0.31762
    Cl(f) = 0.162221
    Cl(r) = 0.155398

nearWallFields near output:
    Sampling fields to 384
Time = 385

smoothSolver:  Solving for Ux, Initial residual = 1.26638e-05, Final residual = 1.14929e-06, No Iterations 1
smoothSolver:  Solving for Uz, Initial residual = 5.94407e-06, Final residual = 4.66818e-07, No Iterations 1
GAMG:  Solving for p, Initial residual = 6.2845e-06, Final residual = 9.96856e-08, No Iterations 13
time step continuity errors : sum local = 4.71149e-09, global = -3.9671e-12, cumulative = -2.14028e-08
smoothSolver:  Solving for omega, Initial residual = 6.92461e-08, Final residual = 8.20044e-09, No Iterations 1
smoothSolver:  Solving for k, Initial residual = 2.27947e-07, Final residual = 1.10396e-08, No Iterations 2
ExecutionTime = 40.22 s  ClockTime = 40 s

forces forceCoeffs1 output:
    sum of forces:
        pressure : (-62.154 -1.05217e-19 1588.35)
        viscous  : (23.1418 -9.40386e-20 -0.0984971)
        porous   : (0 0 0)
    sum of moments:
        pressure : (-794.176 17.1544 -31.077)
        viscous  : (0.0492486 -0.0963403 11.5709)
        porous   : (0 0 0)

forceCoeffs forceCoeffs output:
    Cm    = 0.00341162
    Cd    = 0.00883286
    Cl    = 0.317624
    Cl(f) = 0.162224
    Cl(r) = 0.1554

nearWallFields near output:
    Sampling fields to 385
Time = 386

smoothSolver:  Solving for Ux, Initial residual = 1.23835e-05, Final residual = 1.13301e-06, No Iterations 1
smoothSolver:  Solving for Uz, Initial residual = 5.87968e-06, Final residual = 4.62699e-07, No Iterations 1
GAMG:  Solving for p, Initial residual = 6.25312e-06, Final residual = 9.95055e-08, No Iterations 13
time step continuity errors : sum local = 4.70299e-09, global = -3.89725e-12, cumulative = -2.14067e-08
smoothSolver:  Solving for omega, Initial residual = 6.79328e-08, Final residual = 8.08297e-09, No Iterations 1
smoothSolver:  Solving for k, Initial residual = 2.25122e-07, Final residual = 1.09141e-08, No Iterations 2
ExecutionTime = 40.31 s  ClockTime = 40 s

forces forceCoeffs1 output:
    sum of forces:
        pressure : (-62.156 -1.05237e-19 1588.37)
        viscous  : (23.1419 -9.40394e-20 -0.0984974)
        porous   : (0 0 0)
    sum of moments:
        pressure : (-794.187 17.154 -31.078)
        viscous  : (0.0492487 -0.0963288 11.571)
        porous   : (0 0 0)

forceCoeffs forceCoeffs output:
    Cm    = 0.00341154
    Cd    = 0.00883269
    Cl    = 0.317628
    Cl(f) = 0.162226
    Cl(r) = 0.155402

nearWallFields near output:
    Sampling fields to 386
Time = 387

smoothSolver:  Solving for Ux, Initial residual = 1.2114e-05, Final residual = 1.11654e-06, No Iterations 1
smoothSolver:  Solving for Uz, Initial residual = 5.82016e-06, Final residual = 4.59076e-07, No Iterations 1
GAMG:  Solving for p, Initial residual = 6.19506e-06, Final residual = 9.82422e-08, No Iterations 13
time step continuity errors : sum local = 4.64329e-09, global = -3.79311e-12, cumulative = -2.14105e-08
smoothSolver:  Solving for omega, Initial residual = 6.66194e-08, Final residual = 7.96197e-09, No Iterations 1
smoothSolver:  Solving for k, Initial residual = 2.22206e-07, Final residual = 1.078e-08, No Iterations 2
ExecutionTime = 40.39 s  ClockTime = 41 s

forces forceCoeffs1 output:
    sum of forces:
        pressure : (-62.158 -1.05257e-19 1588.39)
        viscous  : (23.142 -9.40401e-20 -0.0984977)
        porous   : (0 0 0)
    sum of moments:
        pressure : (-794.197 17.1536 -31.079)
        viscous  : (0.0492489 -0.0963173 11.571)
        porous   : (0 0 0)

forceCoeffs forceCoeffs output:
    Cm    = 0.00341145
    Cd    = 0.00883253
    Cl    = 0.317632
    Cl(f) = 0.162227
    Cl(r) = 0.155405

nearWallFields near output:
    Sampling fields to 387
Time = 388

smoothSolver:  Solving for Ux, Initial residual = 1.18533e-05, Final residual = 1.09992e-06, No Iterations 1
smoothSolver:  Solving for Uz, Initial residual = 5.76551e-06, Final residual = 4.55878e-07, No Iterations 1
GAMG:  Solving for p, Initial residual = 6.13943e-06, Final residual = 9.63205e-08, No Iterations 13
time step continuity errors : sum local = 4.55248e-09, global = -3.67811e-12, cumulative = -2.14141e-08
smoothSolver:  Solving for omega, Initial residual = 6.53067e-08, Final residual = 7.84049e-09, No Iterations 1
smoothSolver:  Solving for k, Initial residual = 2.19238e-07, Final residual = 1.06396e-08, No Iterations 2
ExecutionTime = 40.47 s  ClockTime = 41 s

forces forceCoeffs1 output:
    sum of forces:
        pressure : (-62.1599 -1.05277e-19 1588.41)
        viscous  : (23.1421 -9.40409e-20 -0.0984981)
        porous   : (0 0 0)
    sum of moments:
        pressure : (-794.207 17.1531 -31.0799)
        viscous  : (0.049249 -0.0963058 11.5711)
        porous   : (0 0 0)

forceCoeffs forceCoeffs output:
    Cm    = 0.00341135
    Cd    = 0.00883238
    Cl    = 0.317636
    Cl(f) = 0.162229
    Cl(r) = 0.155407

nearWallFields near output:
    Sampling fields to 388
Time = 389

smoothSolver:  Solving for Ux, Initial residual = 1.16023e-05, Final residual = 1.08319e-06, No Iterations 1
smoothSolver:  Solving for Uz, Initial residual = 5.71516e-06, Final residual = 4.53084e-07, No Iterations 1
GAMG:  Solving for p, Initial residual = 6.08946e-06, Final residual = 9.42166e-08, No Iterations 13
time step continuity errors : sum local = 4.45305e-09, global = -3.58059e-12, cumulative = -2.14177e-08
smoothSolver:  Solving for omega, Initial residual = 6.40043e-08, Final residual = 7.72112e-09, No Iterations 1
smoothSolver:  Solving for k, Initial residual = 2.16217e-07, Final residual = 1.04946e-08, No Iterations 2
ExecutionTime = 40.57 s  ClockTime = 41 s

forces forceCoeffs1 output:
    sum of forces:
        pressure : (-62.1618 -1.05297e-19 1588.43)
        viscous  : (23.1422 -9.40416e-20 -0.0984984)
        porous   : (0 0 0)
    sum of moments:
        pressure : (-794.217 17.1525 -31.0809)
        viscous  : (0.0492492 -0.0962943 11.5711)
        porous   : (0 0 0)

forceCoeffs forceCoeffs output:
    Cm    = 0.00341125
    Cd    = 0.00883223
    Cl    = 0.31764
    Cl(f) = 0.162231
    Cl(r) = 0.155409

nearWallFields near output:
    Sampling fields to 389
Time = 390

smoothSolver:  Solving for Ux, Initial residual = 1.13607e-05, Final residual = 1.06633e-06, No Iterations 1
smoothSolver:  Solving for Uz, Initial residual = 5.66886e-06, Final residual = 4.50683e-07, No Iterations 1
GAMG:  Solving for p, Initial residual = 6.02389e-06, Final residual = 9.21662e-08, No Iterations 13
time step continuity errors : sum local = 4.35615e-09, global = -3.49656e-12, cumulative = -2.14212e-08
smoothSolver:  Solving for omega, Initial residual = 6.27178e-08, Final residual = 7.60145e-09, No Iterations 1
smoothSolver:  Solving for k, Initial residual = 2.13161e-07, Final residual = 1.03427e-08, No Iterations 2
ExecutionTime = 40.65 s  ClockTime = 41 s

forces forceCoeffs1 output:
    sum of forces:
        pressure : (-62.1636 -1.05316e-19 1588.45)
        viscous  : (23.1423 -9.40424e-20 -0.0984989)
        porous   : (0 0 0)
    sum of moments:
        pressure : (-794.226 17.152 -31.0818)
        viscous  : (0.0492494 -0.0962829 11.5712)
        porous   : (0 0 0)

forceCoeffs forceCoeffs output:
    Cm    = 0.00341114
    Cd    = 0.00883208
    Cl    = 0.317644
    Cl(f) = 0.162233
    Cl(r) = 0.155411

nearWallFields near output:
    Sampling fields to 390
Time = 391

smoothSolver:  Solving for Ux, Initial residual = 1.11271e-05, Final residual = 1.04935e-06, No Iterations 1
smoothSolver:  Solving for Uz, Initial residual = 5.62635e-06, Final residual = 4.48638e-07, No Iterations 1
GAMG:  Solving for p, Initial residual = 5.95469e-06, Final residual = 9.01905e-08, No Iterations 13
time step continuity errors : sum local = 4.26278e-09, global = -3.41556e-12, cumulative = -2.14246e-08
smoothSolver:  Solving for omega, Initial residual = 6.14424e-08, Final residual = 7.48101e-09, No Iterations 1
smoothSolver:  Solving for k, Initial residual = 2.10084e-07, Final residual = 1.01871e-08, No Iterations 2
ExecutionTime = 40.74 s  ClockTime = 41 s

forces forceCoeffs1 output:
    sum of forces:
        pressure : (-62.1654 -1.05335e-19 1588.47)
        viscous  : (23.1424 -9.40432e-20 -0.0984994)
        porous   : (0 0 0)
    sum of moments:
        pressure : (-794.236 17.1514 -31.0827)
        viscous  : (0.0492497 -0.0962716 11.5712)
        porous   : (0 0 0)

forceCoeffs forceCoeffs output:
    Cm    = 0.00341102
    Cd    = 0.00883194
    Cl    = 0.317648
    Cl(f) = 0.162235
    Cl(r) = 0.155413

nearWallFields near output:
    Sampling fields to 391
Time = 392

smoothSolver:  Solving for Ux, Initial residual = 1.09025e-05, Final residual = 1.03226e-06, No Iterations 1
smoothSolver:  Solving for Uz, Initial residual = 5.58777e-06, Final residual = 4.46925e-07, No Iterations 1
GAMG:  Solving for p, Initial residual = 5.94095e-06, Final residual = 9.82514e-08, No Iterations 12
time step continuity errors : sum local = 4.64378e-09, global = -4.70854e-12, cumulative = -2.14293e-08
smoothSolver:  Solving for omega, Initial residual = 6.01766e-08, Final residual = 7.36032e-09, No Iterations 1
smoothSolver:  Solving for k, Initial residual = 2.06968e-07, Final residual = 1.00401e-08, No Iterations 2
ExecutionTime = 40.83 s  ClockTime = 41 s

forces forceCoeffs1 output:
    sum of forces:
        pressure : (-62.1671 -1.05353e-19 1588.49)
        viscous  : (23.1425 -9.40441e-20 -0.0985)
        porous   : (0 0 0)
    sum of moments:
        pressure : (-794.245 17.1507 -31.0836)
        viscous  : (0.04925 -0.0962605 11.5712)
        porous   : (0 0 0)

forceCoeffs forceCoeffs output:
    Cm    = 0.00341089
    Cd    = 0.00883181
    Cl    = 0.317651
    Cl(f) = 0.162237
    Cl(r) = 0.155415

nearWallFields near output:
    Sampling fields to 392
Time = 393

smoothSolver:  Solving for Ux, Initial residual = 1.06852e-05, Final residual = 1.01512e-06, No Iterations 1
smoothSolver:  Solving for Uz, Initial residual = 5.55261e-06, Final residual = 4.45518e-07, No Iterations 1
GAMG:  Solving for p, Initial residual = 5.89631e-06, Final residual = 9.81534e-08, No Iterations 12
time step continuity errors : sum local = 4.63915e-09, global = -4.63844e-12, cumulative = -2.1434e-08
smoothSolver:  Solving for omega, Initial residual = 5.8924e-08, Final residual = 7.23835e-09, No Iterations 1
smoothSolver:  Solving for k, Initial residual = 2.03858e-07, Final residual = 9.89574e-09, No Iterations 2
ExecutionTime = 40.91 s  ClockTime = 41 s

forces forceCoeffs1 output:
    sum of forces:
        pressure : (-62.1689 -1.05371e-19 1588.51)
        viscous  : (23.1426 -9.40449e-20 -0.0985007)
        porous   : (0 0 0)
    sum of moments:
        pressure : (-794.254 17.1501 -31.0844)
        viscous  : (0.0492504 -0.0962494 11.5713)
        porous   : (0 0 0)

forceCoeffs forceCoeffs output:
    Cm    = 0.00341076
    Cd    = 0.00883168
    Cl    = 0.317655
    Cl(f) = 0.162238
    Cl(r) = 0.155417

nearWallFields near output:
    Sampling fields to 393
Time = 394

smoothSolver:  Solving for Ux, Initial residual = 1.04746e-05, Final residual = 9.9793e-07, No Iterations 1
smoothSolver:  Solving for Uz, Initial residual = 5.52089e-06, Final residual = 4.44377e-07, No Iterations 1
GAMG:  Solving for p, Initial residual = 5.86231e-06, Final residual = 9.76804e-08, No Iterations 12
time step continuity errors : sum local = 4.61681e-09, global = -4.53527e-12, cumulative = -2.14385e-08
smoothSolver:  Solving for omega, Initial residual = 5.76858e-08, Final residual = 7.11778e-09, No Iterations 1
smoothSolver:  Solving for k, Initial residual = 2.00714e-07, Final residual = 9.75696e-09, No Iterations 2
ExecutionTime = 40.98 s  ClockTime = 41 s

forces forceCoeffs1 output:
    sum of forces:
        pressure : (-62.1705 -1.05389e-19 1588.53)
        viscous  : (23.1427 -9.40458e-20 -0.0985015)
        porous   : (0 0 0)
    sum of moments:
        pressure : (-794.263 17.1494 -31.0853)
        viscous  : (0.0492508 -0.0962385 11.5713)
        porous   : (0 0 0)

forceCoeffs forceCoeffs output:
    Cm    = 0.00341063
    Cd    = 0.00883155
    Cl    = 0.317659
    Cl(f) = 0.16224
    Cl(r) = 0.155419

nearWallFields near output:
    Sampling fields to 394
Time = 395

smoothSolver:  Solving for Ux, Initial residual = 1.02715e-05, Final residual = 9.80701e-07, No Iterations 1
smoothSolver:  Solving for Uz, Initial residual = 5.4931e-06, Final residual = 4.43525e-07, No Iterations 1
GAMG:  Solving for p, Initial residual = 5.87607e-06, Final residual = 9.66471e-08, No Iterations 12
time step continuity errors : sum local = 4.56798e-09, global = -4.38376e-12, cumulative = -2.14429e-08
smoothSolver:  Solving for omega, Initial residual = 5.64641e-08, Final residual = 6.99959e-09, No Iterations 1
smoothSolver:  Solving for k, Initial residual = 1.97543e-07, Final residual = 9.62444e-09, No Iterations 2
ExecutionTime = 41.05 s  ClockTime = 41 s

forces forceCoeffs1 output:
    sum of forces:
        pressure : (-62.1722 -1.05406e-19 1588.54)
        viscous  : (23.1428 -9.40466e-20 -0.0985024)
        porous   : (0 0 0)
    sum of moments:
        pressure : (-794.272 17.1487 -31.0861)
        viscous  : (0.0492512 -0.0962277 11.5714)
        porous   : (0 0 0)

forceCoeffs forceCoeffs output:
    Cm    = 0.00341049
    Cd    = 0.00883143
    Cl    = 0.317662
    Cl(f) = 0.162242
    Cl(r) = 0.155421

nearWallFields near output:
    Sampling fields to 395
Time = 396

smoothSolver:  Solving for Ux, Initial residual = 1.00739e-05, Final residual = 9.63473e-07, No Iterations 1
smoothSolver:  Solving for Uz, Initial residual = 5.4675e-06, Final residual = 4.42892e-07, No Iterations 1
GAMG:  Solving for p, Initial residual = 5.87661e-06, Final residual = 9.50232e-08, No Iterations 12
time step continuity errors : sum local = 4.49123e-09, global = -4.21175e-12, cumulative = -2.14471e-08
smoothSolver:  Solving for omega, Initial residual = 5.52647e-08, Final residual = 6.8824e-09, No Iterations 1
smoothSolver:  Solving for k, Initial residual = 1.9437e-07, Final residual = 9.49454e-09, No Iterations 2
ExecutionTime = 41.12 s  ClockTime = 41 s

forces forceCoeffs1 output:
    sum of forces:
        pressure : (-62.1738 -1.05424e-19 1588.56)
        viscous  : (23.1429 -9.40475e-20 -0.0985034)
        porous   : (0 0 0)
    sum of moments:
        pressure : (-794.281 17.1479 -31.0869)
        viscous  : (0.0492517 -0.0962171 11.5714)
        porous   : (0 0 0)

forceCoeffs forceCoeffs output:
    Cm    = 0.00341034
    Cd    = 0.00883131
    Cl    = 0.317666
    Cl(f) = 0.162243
    Cl(r) = 0.155423

nearWallFields near output:
    Sampling fields to 396
Time = 397

smoothSolver:  Solving for Ux, Initial residual = 9.88249e-06, Final residual = 9.46258e-07, No Iterations 1
smoothSolver:  Solving for Uz, Initial residual = 5.44521e-06, Final residual = 4.42501e-07, No Iterations 1
GAMG:  Solving for p, Initial residual = 5.84457e-06, Final residual = 9.30706e-08, No Iterations 12
time step continuity errors : sum local = 4.39895e-09, global = -4.0574e-12, cumulative = -2.14512e-08
smoothSolver:  Solving for omega, Initial residual = 5.40827e-08, Final residual = 6.77035e-09, No Iterations 1
smoothSolver:  Solving for k, Initial residual = 1.91169e-07, Final residual = 9.37296e-09, No Iterations 2
ExecutionTime = 41.21 s  ClockTime = 41 s


SIMPLE solution converged in 397 iterations

forces forceCoeffs1 output:
    sum of forces:
        pressure : (-62.1753 -1.05441e-19 1588.58)
        viscous  : (23.1429 -9.40484e-20 -0.0985046)
        porous   : (0 0 0)
    sum of moments:
        pressure : (-794.29 17.1471 -31.0877)
        viscous  : (0.0492523 -0.0962066 11.5715)
        porous   : (0 0 0)

forceCoeffs forceCoeffs output:
    Cm    = 0.00341018
    Cd    = 0.00883119
    Cl    = 0.317669
    Cl(f) = 0.162245
    Cl(r) = 0.155424

nearWallFields near output:
    Sampling fields to 397
    Writing sampled fields to 397

wallBoundedStreamLine : seeded 186 particles.
    Tracks:186
    Total samples:8203
Writing data to "/home/fonso/OpenFOAM/fonso-2.3.0/run/NACABCN/processor0/../postProcessing/sets/wallBoundedStreamLines/397"
End

Finalising parallel run
