/*---------------------------------------------------------------------------*\
| =========                 |                                                 |
| \\      /  F ield         | OpenFOAM: The Open Source CFD Toolbox           |
|  \\    /   O peration     | Version:  2.3.0                                 |
|   \\  /    A nd           | Web:      www.OpenFOAM.org                      |
|    \\/     M anipulation  |                                                 |
\*---------------------------------------------------------------------------*/
Build  : 2.3.0-f5222ca19ce6
Exec   : potentialFoam -noFunctionObjects
Date   : May 05 2014
Time   : 18:18:51
Host   : "Alfonsos-MacBook-Pro.local"
PID    : 17920
Case   : /Users/fonso/C++/GAero/GAero/OF/mainCase
nProcs : 1
sigFpe : Enabling floating point exception trapping (FOAM_SIGFPE).
fileModificationChecking : Monitoring run-time modified files using timeStampMaster
allowSystemOperations : Disallowing user-supplied system call operations

// * * * * * * * * * * * * * * * * * * * * * * * * * * * * * * * * * * * * * //
Create time

Create mesh for time = 0

Reading field p

Reading field U

No finite volume options present


Calculating potential flow
GAMG:  Solving for p, Initial residual = 1, Final residual = 0.00981697, No Iterations 31
GAMG:  Solving for p, Initial residual = 0.00596749, Final residual = 5.43416e-05, No Iterations 18
GAMG:  Solving for p, Initial residual = 0.00115689, Final residual = 1.06322e-05, No Iterations 21
GAMG:  Solving for p, Initial residual = 0.000283941, Final residual = 2.73092e-06, No Iterations 22
GAMG:  Solving for p, Initial residual = 8.07563e-05, Final residual = 7.27696e-07, No Iterations 20
GAMG:  Solving for p, Initial residual = 2.33869e-05, Final residual = 2.20804e-07, No Iterations 23
GAMG:  Solving for p, Initial residual = 7.04005e-06, Final residual = 8.70349e-08, No Iterations 17
GAMG:  Solving for p, Initial residual = 2.25321e-06, Final residual = 9.45651e-08, No Iterations 11
GAMG:  Solving for p, Initial residual = 7.83206e-07, Final residual = 7.92087e-08, No Iterations 6
GAMG:  Solving for p, Initial residual = 3.1042e-07, Final residual = 8.79947e-08, No Iterations 3
GAMG:  Solving for p, Initial residual = 1.62398e-07, Final residual = 9.51865e-08, No Iterations 1
continuity error = 3.4538e-05
Interpolated U error = 5.34884e-05
ExecutionTime = 1.38 s  ClockTime = 1 s

End

