/*---------------------------------------------------------------------------*\
| =========                 |                                                 |
| \\      /  F ield         | OpenFOAM: The Open Source CFD Toolbox           |
|  \\    /   O peration     | Version:  2.3.0                                 |
|   \\  /    A nd           | Web:      www.OpenFOAM.org                      |
|    \\/     M anipulation  |                                                 |
\*---------------------------------------------------------------------------*/
Build  : 2.3.0-f5222ca19ce6
Exec   : simpleFoam -parallel
Date   : May 06 2014
Time   : 14:20:10
Host   : "Alfonsos-MacBook-Pro.local"
PID    : 35733
Case   : /Users/fonso/C++/GAero/GAero/OF/NACABCN
nProcs : 2
Slaves : 1("Alfonsos-MacBook-Pro.local.35734")
Pstream initialized with:
    floatTransfer      : 0
    nProcsSimpleSum    : 0
    commsType          : nonBlocking
    polling iterations : 0
sigFpe : Enabling floating point exception trapping (FOAM_SIGFPE).
fileModificationChecking : Monitoring run-time modified files using timeStampMaster
allowSystemOperations : Disallowing user-supplied system call operations

// * * * * * * * * * * * * * * * * * * * * * * * * * * * * * * * * * * * * * //
Create time

Create mesh for time = 0

Reading field p

Reading field U

Reading/calculating face flux field phi

Selecting incompressible transport model Newtonian
Selecting RAS turbulence model kOmegaSST
kOmegaSSTCoeffs
{
    alphaK1         0.85034;
    alphaK2         1;
    alphaOmega1     0.5;
    alphaOmega2     0.85616;
    gamma1          0.5532;
    gamma2          0.4403;
    beta1           0.075;
    beta2           0.0828;
    betaStar        0.09;
    a1              0.31;
    b1              1;
    c1              10;
    F3              false;
}

No finite volume options present


SIMPLE: convergence criteria
    field p	 tolerance 1e-05
    field U	 tolerance 1e-05
    field nuTilda	 tolerance 1e-05


Starting time loop

forceCoeffs forceCoeffs:
    Not including porosity effects

Time = 1

smoothSolver:  Solving for Ux, Initial residual = 0.0329199, Final residual = 0.000978356, No Iterations 1
smoothSolver:  Solving for Uz, Initial residual = 0.0745987, Final residual = 0.00109494, No Iterations 1
GAMG:  Solving for p, Initial residual = 1, Final residual = 0.0094779, No Iterations 23
time step continuity errors : sum local = 0.000114703, global = -6.33951e-09, cumulative = -6.33951e-09
smoothSolver:  Solving for omega, Initial residual = 0.00210353, Final residual = 0.000160029, No Iterations 3
smoothSolver:  Solving for k, Initial residual = 1, Final residual = 0.0174768, No Iterations 1
ExecutionTime = 0.45 s  ClockTime = 0 s

forceCoeffs forceCoeffs output:
    Cm    = 0.0234513
    Cd    = 0.0289083
    Cl    = 0.0639513
    Cl(f) = 0.055427
    Cl(r) = 0.00852434

Time = 2

smoothSolver:  Solving for Ux, Initial residual = 0.0261093, Final residual = 0.000578427, No Iterations 1
smoothSolver:  Solving for Uz, Initial residual = 0.0457661, Final residual = 0.000900604, No Iterations 1
GAMG:  Solving for p, Initial residual = 0.234011, Final residual = 0.00226522, No Iterations 25
time step continuity errors : sum local = 9.1216e-05, global = -3.10817e-08, cumulative = -3.74212e-08
smoothSolver:  Solving for omega, Initial residual = 0.00128412, Final residual = 9.40579e-05, No Iterations 3
smoothSolver:  Solving for k, Initial residual = 0.122796, Final residual = 0.00253975, No Iterations 1
ExecutionTime = 0.59 s  ClockTime = 0 s

forceCoeffs forceCoeffs output:
    Cm    = 0.0398937
    Cd    = 0.0348531
    Cl    = 0.128132
    Cl(f) = 0.10396
    Cl(r) = 0.0241722

Time = 3

smoothSolver:  Solving for Ux, Initial residual = 0.0258445, Final residual = 0.000555934, No Iterations 1
smoothSolver:  Solving for Uz, Initial residual = 0.0379342, Final residual = 0.000942296, No Iterations 1
GAMG:  Solving for p, Initial residual = 0.129105, Final residual = 0.00127978, No Iterations 13
time step continuity errors : sum local = 8.15231e-05, global = 6.25234e-08, cumulative = 2.51022e-08
smoothSolver:  Solving for omega, Initial residual = 0.0010799, Final residual = 6.88122e-05, No Iterations 3
smoothSolver:  Solving for k, Initial residual = 0.0431507, Final residual = 0.00104319, No Iterations 1
ExecutionTime = 0.68 s  ClockTime = 0 s

forceCoeffs forceCoeffs output:
    Cm    = 0.0406763
    Cd    = 0.0100011
    Cl    = 0.134149
    Cl(f) = 0.107751
    Cl(r) = 0.0263982

Time = 4

smoothSolver:  Solving for Ux, Initial residual = 0.0253474, Final residual = 0.000607419, No Iterations 1
smoothSolver:  Solving for Uz, Initial residual = 0.0328641, Final residual = 0.000910789, No Iterations 1
GAMG:  Solving for p, Initial residual = 0.132734, Final residual = 0.00128752, No Iterations 23
time step continuity errors : sum local = 8.27223e-05, global = 2.56688e-09, cumulative = 2.7669e-08
smoothSolver:  Solving for omega, Initial residual = 0.000915846, Final residual = 8.99901e-05, No Iterations 2
smoothSolver:  Solving for k, Initial residual = 0.0201677, Final residual = 0.000585189, No Iterations 1
ExecutionTime = 0.8 s  ClockTime = 0 s

forceCoeffs forceCoeffs output:
    Cm    = 0.0311559
    Cd    = -0.0132597
    Cl    = 0.0950289
    Cl(f) = 0.0786704
    Cl(r) = 0.0163586

Time = 5

smoothSolver:  Solving for Ux, Initial residual = 0.0237509, Final residual = 0.000510637, No Iterations 1
smoothSolver:  Solving for Uz, Initial residual = 0.028918, Final residual = 0.000836773, No Iterations 1
GAMG:  Solving for p, Initial residual = 0.158917, Final residual = 0.0015299, No Iterations 22
time step continuity errors : sum local = 7.55018e-05, global = -2.02188e-08, cumulative = 7.45023e-09
smoothSolver:  Solving for omega, Initial residual = 0.000787851, Final residual = 7.65384e-05, No Iterations 2
smoothSolver:  Solving for k, Initial residual = 0.0109931, Final residual = 0.000385171, No Iterations 1
ExecutionTime = 0.91 s  ClockTime = 1 s

forceCoeffs forceCoeffs output:
    Cm    = 0.0185758
    Cd    = -0.012886
    Cl    = 0.0624855
    Cl(f) = 0.0498185
    Cl(r) = 0.012667

Time = 6

smoothSolver:  Solving for Ux, Initial residual = 0.022899, Final residual = 0.000428375, No Iterations 1
smoothSolver:  Solving for Uz, Initial residual = 0.0272184, Final residual = 0.000813344, No Iterations 1
GAMG:  Solving for p, Initial residual = 0.185742, Final residual = 0.00165551, No Iterations 15
time step continuity errors : sum local = 6.6084e-05, global = -3.99505e-08, cumulative = -3.25002e-08
smoothSolver:  Solving for omega, Initial residual = 0.000686507, Final residual = 6.80454e-05, No Iterations 2
smoothSolver:  Solving for k, Initial residual = 0.00666423, Final residual = 0.000283253, No Iterations 1
ExecutionTime = 1.01 s  ClockTime = 1 s

forceCoeffs forceCoeffs output:
    Cm    = 0.00814261
    Cd    = 0.00219491
    Cl    = 0.0663389
    Cl(f) = 0.0413121
    Cl(r) = 0.0250268

Time = 7

smoothSolver:  Solving for Ux, Initial residual = 0.0224591, Final residual = 0.000382533, No Iterations 1
smoothSolver:  Solving for Uz, Initial residual = 0.0261619, Final residual = 0.000805044, No Iterations 1
GAMG:  Solving for p, Initial residual = 0.159112, Final residual = 0.00151748, No Iterations 25
time step continuity errors : sum local = 6.59793e-05, global = 4.95192e-09, cumulative = -2.75483e-08
smoothSolver:  Solving for omega, Initial residual = 0.000592948, Final residual = 3.46151e-05, No Iterations 3
smoothSolver:  Solving for k, Initial residual = 0.00451179, Final residual = 0.000225244, No Iterations 1
ExecutionTime = 1.15 s  ClockTime = 1 s

forceCoeffs forceCoeffs output:
    Cm    = 0.00344639
    Cd    = 0.0127404
    Cl    = 0.0964161
    Cl(f) = 0.0516544
    Cl(r) = 0.0447617

Time = 8

smoothSolver:  Solving for Ux, Initial residual = 0.0220328, Final residual = 0.000353698, No Iterations 1
smoothSolver:  Solving for Uz, Initial residual = 0.0260962, Final residual = 0.000839596, No Iterations 1
GAMG:  Solving for p, Initial residual = 0.117923, Final residual = 0.00110282, No Iterations 25
time step continuity errors : sum local = 5.62502e-05, global = -1.55579e-08, cumulative = -4.31062e-08
smoothSolver:  Solving for omega, Initial residual = 0.000526231, Final residual = 4.94848e-05, No Iterations 2
smoothSolver:  Solving for k, Initial residual = 0.00349002, Final residual = 0.000194735, No Iterations 1
ExecutionTime = 1.28 s  ClockTime = 1 s

forceCoeffs forceCoeffs output:
    Cm    = 0.00490045
    Cd    = 0.0117312
    Cl    = 0.125612
    Cl(f) = 0.0677066
    Cl(r) = 0.0579057

Time = 9

smoothSolver:  Solving for Ux, Initial residual = 0.021536, Final residual = 0.00034354, No Iterations 1
smoothSolver:  Solving for Uz, Initial residual = 0.0253894, Final residual = 0.000828969, No Iterations 1
GAMG:  Solving for p, Initial residual = 0.11662, Final residual = 0.0011267, No Iterations 17
time step continuity errors : sum local = 5.88183e-05, global = 1.48563e-08, cumulative = -2.82499e-08
smoothSolver:  Solving for omega, Initial residual = 0.000479377, Final residual = 4.19933e-05, No Iterations 2
smoothSolver:  Solving for k, Initial residual = 0.00319062, Final residual = 0.000191205, No Iterations 1
ExecutionTime = 1.38 s  ClockTime = 1 s

forceCoeffs forceCoeffs output:
    Cm    = 0.00916447
    Cd    = 0.00539362
    Cl    = 0.137677
    Cl(f) = 0.0780028
    Cl(r) = 0.0596739

Time = 10

smoothSolver:  Solving for Ux, Initial residual = 0.0211172, Final residual = 0.000368894, No Iterations 1
smoothSolver:  Solving for Uz, Initial residual = 0.0238471, Final residual = 0.000787866, No Iterations 1
GAMG:  Solving for p, Initial residual = 0.124, Final residual = 0.00119477, No Iterations 24
time step continuity errors : sum local = 5.64199e-05, global = 4.77033e-09, cumulative = -2.34795e-08
smoothSolver:  Solving for omega, Initial residual = 0.000437134, Final residual = 3.5988e-05, No Iterations 2
smoothSolver:  Solving for k, Initial residual = 0.00352193, Final residual = 0.000215348, No Iterations 1
ExecutionTime = 1.49 s  ClockTime = 1 s

forceCoeffs forceCoeffs output:
    Cm    = 0.0114895
    Cd    = 0.00188963
    Cl    = 0.134995
    Cl(f) = 0.0789869
    Cl(r) = 0.0560079

Time = 11

smoothSolver:  Solving for Ux, Initial residual = 0.0207476, Final residual = 0.000377516, No Iterations 1
smoothSolver:  Solving for Uz, Initial residual = 0.022506, Final residual = 0.000755801, No Iterations 1
GAMG:  Solving for p, Initial residual = 0.125558, Final residual = 0.0012339, No Iterations 24
time step continuity errors : sum local = 5.34258e-05, global = -1.53381e-08, cumulative = -3.88176e-08
smoothSolver:  Solving for omega, Initial residual = 0.000408157, Final residual = 3.0341e-05, No Iterations 2
smoothSolver:  Solving for k, Initial residual = 0.0038347, Final residual = 0.00019769, No Iterations 1
ExecutionTime = 1.61 s  ClockTime = 1 s

forceCoeffs forceCoeffs output:
    Cm    = 0.00953817
    Cd    = 0.00377909
    Cl    = 0.129675
    Cl(f) = 0.0743756
    Cl(r) = 0.0552992

Time = 12

smoothSolver:  Solving for Ux, Initial residual = 0.0202683, Final residual = 0.000347784, No Iterations 1
smoothSolver:  Solving for Uz, Initial residual = 0.0211628, Final residual = 0.000720334, No Iterations 1
GAMG:  Solving for p, Initial residual = 0.116919, Final residual = 0.00112734, No Iterations 20
time step continuity errors : sum local = 5.12344e-05, global = -4.88858e-09, cumulative = -4.37062e-08
smoothSolver:  Solving for omega, Initial residual = 0.000393366, Final residual = 2.49953e-05, No Iterations 2
smoothSolver:  Solving for k, Initial residual = 0.00338773, Final residual = 0.000153223, No Iterations 1
ExecutionTime = 1.72 s  ClockTime = 1 s

forceCoeffs forceCoeffs output:
    Cm    = 0.00499024
    Cd    = 0.00827252
    Cl    = 0.130405
    Cl(f) = 0.0701929
    Cl(r) = 0.0602124

Time = 13

smoothSolver:  Solving for Ux, Initial residual = 0.0198651, Final residual = 0.000323286, No Iterations 1
smoothSolver:  Solving for Uz, Initial residual = 0.0202165, Final residual = 0.000716174, No Iterations 1
GAMG:  Solving for p, Initial residual = 0.101089, Final residual = 0.000996529, No Iterations 25
time step continuity errors : sum local = 5.02983e-05, global = 9.96416e-09, cumulative = -3.3742e-08
smoothSolver:  Solving for omega, Initial residual = 0.000375637, Final residual = 2.0147e-05, No Iterations 2
smoothSolver:  Solving for k, Initial residual = 0.00277778, Final residual = 0.000115731, No Iterations 1
ExecutionTime = 1.83 s  ClockTime = 1 s

forceCoeffs forceCoeffs output:
    Cm    = 0.00143589
    Cd    = 0.011712
    Cl    = 0.136989
    Cl(f) = 0.0699303
    Cl(r) = 0.0670585

Time = 14

smoothSolver:  Solving for Ux, Initial residual = 0.0195953, Final residual = 0.000330001, No Iterations 1
smoothSolver:  Solving for Uz, Initial residual = 0.0195913, Final residual = 0.000718308, No Iterations 1
GAMG:  Solving for p, Initial residual = 0.0914509, Final residual = 0.000909248, No Iterations 27
time step continuity errors : sum local = 4.78498e-05, global = -1.18882e-08, cumulative = -4.56302e-08
smoothSolver:  Solving for omega, Initial residual = 0.000346284, Final residual = 1.5991e-05, No Iterations 2
smoothSolver:  Solving for k, Initial residual = 0.00218464, Final residual = 8.73493e-05, No Iterations 1
ExecutionTime = 1.93 s  ClockTime = 2 s

forceCoeffs forceCoeffs output:
    Cm    = 0.0010011
    Cd    = 0.0126166
    Cl    = 0.144086
    Cl(f) = 0.0730442
    Cl(r) = 0.071042

Time = 15

smoothSolver:  Solving for Ux, Initial residual = 0.0193906, Final residual = 0.000348594, No Iterations 1
smoothSolver:  Solving for Uz, Initial residual = 0.0188508, Final residual = 0.000698922, No Iterations 1
GAMG:  Solving for p, Initial residual = 0.0947486, Final residual = 0.000885831, No Iterations 24
time step continuity errors : sum local = 4.42772e-05, global = 9.4288e-09, cumulative = -3.62014e-08
smoothSolver:  Solving for omega, Initial residual = 0.000309802, Final residual = 1.24161e-05, No Iterations 2
smoothSolver:  Solving for k, Initial residual = 0.0016621, Final residual = 6.6017e-05, No Iterations 1
ExecutionTime = 2.02 s  ClockTime = 2 s

forceCoeffs forceCoeffs output:
    Cm    = 0.00282313
    Cd    = 0.0119465
    Cl    = 0.1481
    Cl(f) = 0.0768732
    Cl(r) = 0.0712269

Time = 16

smoothSolver:  Solving for Ux, Initial residual = 0.0192661, Final residual = 0.000372415, No Iterations 1
smoothSolver:  Solving for Uz, Initial residual = 0.0180186, Final residual = 0.000671222, No Iterations 1
GAMG:  Solving for p, Initial residual = 0.101554, Final residual = 0.00100654, No Iterations 25
time step continuity errors : sum local = 4.60451e-05, global = -1.17218e-08, cumulative = -4.79233e-08
smoothSolver:  Solving for omega, Initial residual = 0.000273774, Final residual = 9.75453e-06, No Iterations 2
smoothSolver:  Solving for k, Initial residual = 0.00123318, Final residual = 5.041e-05, No Iterations 1
ExecutionTime = 2.12 s  ClockTime = 2 s

forceCoeffs forceCoeffs output:
    Cm    = 0.00445841
    Cd    = 0.0112816
    Cl    = 0.149717
    Cl(f) = 0.0793167
    Cl(r) = 0.0703999

Time = 17

smoothSolver:  Solving for Ux, Initial residual = 0.0191582, Final residual = 0.000388255, No Iterations 1
smoothSolver:  Solving for Uz, Initial residual = 0.0171298, Final residual = 0.0006419, No Iterations 1
GAMG:  Solving for p, Initial residual = 0.106279, Final residual = 0.00102948, No Iterations 30
time step continuity errors : sum local = 4.49919e-05, global = -1.92009e-08, cumulative = -6.71242e-08
smoothSolver:  Solving for omega, Initial residual = 0.00024315, Final residual = 7.90034e-06, No Iterations 2
smoothSolver:  Solving for k, Initial residual = 0.00090299, Final residual = 3.92871e-05, No Iterations 1
ExecutionTime = 2.22 s  ClockTime = 2 s

forceCoeffs forceCoeffs output:
    Cm    = 0.00427118
    Cd    = 0.0112788
    Cl    = 0.15145
    Cl(f) = 0.0799961
    Cl(r) = 0.0714538

Time = 18

smoothSolver:  Solving for Ux, Initial residual = 0.0190417, Final residual = 0.000390831, No Iterations 1
smoothSolver:  Solving for Uz, Initial residual = 0.0162961, Final residual = 0.00061943, No Iterations 1
GAMG:  Solving for p, Initial residual = 0.100794, Final residual = 0.000974758, No Iterations 35
time step continuity errors : sum local = 4.40131e-05, global = 1.53337e-08, cumulative = -5.17905e-08
smoothSolver:  Solving for omega, Initial residual = 0.000219967, Final residual = 6.73856e-06, No Iterations 2
smoothSolver:  Solving for k, Initial residual = 0.000665137, Final residual = 3.1908e-05, No Iterations 1
ExecutionTime = 2.36 s  ClockTime = 2 s

forceCoeffs forceCoeffs output:
    Cm    = 0.00258998
    Cd    = 0.0115453
    Cl    = 0.1542
    Cl(f) = 0.0796898
    Cl(r) = 0.0745098

Time = 19

smoothSolver:  Solving for Ux, Initial residual = 0.0188991, Final residual = 0.000396754, No Iterations 1
smoothSolver:  Solving for Uz, Initial residual = 0.0155528, Final residual = 0.000611714, No Iterations 1
GAMG:  Solving for p, Initial residual = 0.0901187, Final residual = 0.000874492, No Iterations 31
time step continuity errors : sum local = 4.20844e-05, global = -7.1489e-09, cumulative = -5.89394e-08
smoothSolver:  Solving for omega, Initial residual = 0.000203392, Final residual = 6.04645e-06, No Iterations 2
smoothSolver:  Solving for k, Initial residual = 0.000518992, Final residual = 2.90735e-05, No Iterations 1
ExecutionTime = 2.48 s  ClockTime = 2 s

forceCoeffs forceCoeffs output:
    Cm    = 0.000897335
    Cd    = 0.0116071
    Cl    = 0.15692
    Cl(f) = 0.0793572
    Cl(r) = 0.0775625

Time = 20

smoothSolver:  Solving for Ux, Initial residual = 0.0188154, Final residual = 0.000414947, No Iterations 1
smoothSolver:  Solving for Uz, Initial residual = 0.0148742, Final residual = 0.000603634, No Iterations 1
GAMG:  Solving for p, Initial residual = 0.0828646, Final residual = 0.000802276, No Iterations 29
time step continuity errors : sum local = 4.00874e-05, global = -1.1611e-08, cumulative = -7.05504e-08
smoothSolver:  Solving for omega, Initial residual = 0.00019232, Final residual = 5.58829e-06, No Iterations 2
smoothSolver:  Solving for k, Initial residual = 0.000467689, Final residual = 2.91349e-05, No Iterations 1
ExecutionTime = 2.58 s  ClockTime = 2 s

forceCoeffs forceCoeffs output:
    Cm    = 0.000273806
    Cd    = 0.0115633
    Cl    = 0.158598
    Cl(f) = 0.079573
    Cl(r) = 0.0790254

Time = 21

smoothSolver:  Solving for Ux, Initial residual = 0.0187275, Final residual = 0.000432043, No Iterations 1
smoothSolver:  Solving for Uz, Initial residual = 0.0142382, Final residual = 0.00058645, No Iterations 1
GAMG:  Solving for p, Initial residual = 0.0821584, Final residual = 0.000805666, No Iterations 34
time step continuity errors : sum local = 3.9895e-05, global = 1.35741e-08, cumulative = -5.69763e-08
smoothSolver:  Solving for omega, Initial residual = 0.000184084, Final residual = 5.22749e-06, No Iterations 2
smoothSolver:  Solving for k, Initial residual = 0.000459641, Final residual = 3.03348e-05, No Iterations 1
ExecutionTime = 2.71 s  ClockTime = 2 s

forceCoeffs forceCoeffs output:
    Cm    = 0.000641147
    Cd    = 0.0117581
    Cl    = 0.159711
    Cl(f) = 0.0804968
    Cl(r) = 0.0792145

Time = 22

smoothSolver:  Solving for Ux, Initial residual = 0.0185734, Final residual = 0.000444691, No Iterations 1
smoothSolver:  Solving for Uz, Initial residual = 0.0136549, Final residual = 0.000564387, No Iterations 1
GAMG:  Solving for p, Initial residual = 0.0850131, Final residual = 0.000836691, No Iterations 37
time step continuity errors : sum local = 3.97239e-05, global = 2.23308e-08, cumulative = -3.46454e-08
smoothSolver:  Solving for omega, Initial residual = 0.000177503, Final residual = 4.79969e-06, No Iterations 2
smoothSolver:  Solving for k, Initial residual = 0.000459485, Final residual = 3.19654e-05, No Iterations 1
ExecutionTime = 2.83 s  ClockTime = 2 s

forceCoeffs forceCoeffs output:
    Cm    = 0.0012008
    Cd    = 0.0122131
    Cl    = 0.161592
    Cl(f) = 0.0819968
    Cl(r) = 0.0795952

Time = 23

smoothSolver:  Solving for Ux, Initial residual = 0.0184474, Final residual = 0.000457439, No Iterations 1
smoothSolver:  Solving for Uz, Initial residual = 0.0130782, Final residual = 0.000539612, No Iterations 1
GAMG:  Solving for p, Initial residual = 0.0894456, Final residual = 0.000882165, No Iterations 33
time step continuity errors : sum local = 4.0067e-05, global = 1.31048e-08, cumulative = -2.15406e-08
smoothSolver:  Solving for omega, Initial residual = 0.000166117, Final residual = 4.34557e-06, No Iterations 2
smoothSolver:  Solving for k, Initial residual = 0.000456253, Final residual = 3.39294e-05, No Iterations 1
ExecutionTime = 2.95 s  ClockTime = 3 s

forceCoeffs forceCoeffs output:
    Cm    = 0.00133034
    Cd    = 0.0125606
    Cl    = 0.164864
    Cl(f) = 0.0837621
    Cl(r) = 0.0811015

Time = 24

smoothSolver:  Solving for Ux, Initial residual = 0.0183932, Final residual = 0.000473264, No Iterations 1
smoothSolver:  Solving for Uz, Initial residual = 0.0124788, Final residual = 0.000518606, No Iterations 1
GAMG:  Solving for p, Initial residual = 0.0896688, Final residual = 0.000880504, No Iterations 30
time step continuity errors : sum local = 3.92772e-05, global = -4.91178e-09, cumulative = -2.64524e-08
smoothSolver:  Solving for omega, Initial residual = 0.000150004, Final residual = 3.99683e-06, No Iterations 2
smoothSolver:  Solving for k, Initial residual = 0.000449567, Final residual = 3.60862e-05, No Iterations 1
ExecutionTime = 3.05 s  ClockTime = 3 s

forceCoeffs forceCoeffs output:
    Cm    = 0.00101728
    Cd    = 0.0124698
    Cl    = 0.168715
    Cl(f) = 0.0853749
    Cl(r) = 0.0833404

Time = 25

smoothSolver:  Solving for Ux, Initial residual = 0.01832, Final residual = 0.000489664, No Iterations 1
smoothSolver:  Solving for Uz, Initial residual = 0.0118833, Final residual = 0.000505498, No Iterations 1
GAMG:  Solving for p, Initial residual = 0.0848301, Final residual = 0.000810223, No Iterations 36
time step continuity errors : sum local = 3.65888e-05, global = -7.97222e-09, cumulative = -3.44246e-08
smoothSolver:  Solving for omega, Initial residual = 0.000135487, Final residual = 3.67348e-06, No Iterations 2
smoothSolver:  Solving for k, Initial residual = 0.000443594, Final residual = 3.81233e-05, No Iterations 1
ExecutionTime = 3.22 s  ClockTime = 3 s

forceCoeffs forceCoeffs output:
    Cm    = 0.000611031
    Cd    = 0.0120481
    Cl    = 0.171771
    Cl(f) = 0.0864965
    Cl(r) = 0.0852744

Time = 26

smoothSolver:  Solving for Ux, Initial residual = 0.0182969, Final residual = 0.000506339, No Iterations 1
smoothSolver:  Solving for Uz, Initial residual = 0.0113409, Final residual = 0.000493154, No Iterations 1
GAMG:  Solving for p, Initial residual = 0.0792068, Final residual = 0.000790551, No Iterations 36
time step continuity errors : sum local = 3.66082e-05, global = -2.45239e-08, cumulative = -5.89486e-08
smoothSolver:  Solving for omega, Initial residual = 0.000124568, Final residual = 3.35736e-06, No Iterations 2
smoothSolver:  Solving for k, Initial residual = 0.000437072, Final residual = 4.0106e-05, No Iterations 1
ExecutionTime = 3.37 s  ClockTime = 3 s

forceCoeffs forceCoeffs output:
    Cm    = 0.000393141
    Cd    = 0.0117019
    Cl    = 0.173407
    Cl(f) = 0.0870965
    Cl(r) = 0.0863102

Time = 27

smoothSolver:  Solving for Ux, Initial residual = 0.0182232, Final residual = 0.000517675, No Iterations 1
smoothSolver:  Solving for Uz, Initial residual = 0.0108781, Final residual = 0.000477308, No Iterations 1
GAMG:  Solving for p, Initial residual = 0.0773055, Final residual = 0.000759684, No Iterations 31
time step continuity errors : sum local = 3.57761e-05, global = 4.17716e-08, cumulative = -1.7177e-08
smoothSolver:  Solving for omega, Initial residual = 0.000114781, Final residual = 3.0517e-06, No Iterations 2
smoothSolver:  Solving for k, Initial residual = 0.000429247, Final residual = 4.19019e-05, No Iterations 1
ExecutionTime = 3.47 s  ClockTime = 3 s

forceCoeffs forceCoeffs output:
    Cm    = 0.000377888
    Cd    = 0.0117098
    Cl    = 0.174252
    Cl(f) = 0.0875037
    Cl(r) = 0.0867479

Time = 28

smoothSolver:  Solving for Ux, Initial residual = 0.0180412, Final residual = 0.00052405, No Iterations 1
smoothSolver:  Solving for Uz, Initial residual = 0.0104488, Final residual = 0.000457724, No Iterations 1
GAMG:  Solving for p, Initial residual = 0.0769388, Final residual = 0.000751779, No Iterations 32
time step continuity errors : sum local = 3.53599e-05, global = 1.79285e-08, cumulative = 7.51438e-10
smoothSolver:  Solving for omega, Initial residual = 0.000109554, Final residual = 2.81257e-06, No Iterations 2
smoothSolver:  Solving for k, Initial residual = 0.000419704, Final residual = 7.94732e-06, No Iterations 2
ExecutionTime = 3.58 s  ClockTime = 3 s

forceCoeffs forceCoeffs output:
    Cm    = 0.000398267
    Cd    = 0.0119726
    Cl    = 0.17547
    Cl(f) = 0.0881334
    Cl(r) = 0.0873369

Time = 29

smoothSolver:  Solving for Ux, Initial residual = 0.0178508, Final residual = 0.000528656, No Iterations 1
smoothSolver:  Solving for Uz, Initial residual = 0.0100407, Final residual = 0.000438134, No Iterations 1
GAMG:  Solving for p, Initial residual = 0.0766524, Final residual = 0.000736667, No Iterations 34
time step continuity errors : sum local = 3.40464e-05, global = 1.32668e-08, cumulative = 1.40182e-08
smoothSolver:  Solving for omega, Initial residual = 0.000109244, Final residual = 2.68186e-06, No Iterations 2
smoothSolver:  Solving for k, Initial residual = 0.00040609, Final residual = 8.47692e-06, No Iterations 2
ExecutionTime = 3.7 s  ClockTime = 3 s

forceCoeffs forceCoeffs output:
    Cm    = 0.000340093
    Cd    = 0.0121668
    Cl    = 0.177729
    Cl(f) = 0.0892046
    Cl(r) = 0.0885245

Time = 30

smoothSolver:  Solving for Ux, Initial residual = 0.0177754, Final residual = 0.000536829, No Iterations 1
smoothSolver:  Solving for Uz, Initial residual = 0.00963759, Final residual = 0.000421094, No Iterations 1
GAMG:  Solving for p, Initial residual = 0.0762516, Final residual = 0.000751602, No Iterations 34
time step continuity errors : sum local = 3.39859e-05, global = 2.31889e-08, cumulative = 3.72071e-08
smoothSolver:  Solving for omega, Initial residual = 0.00011051, Final residual = 2.58066e-06, No Iterations 2
smoothSolver:  Solving for k, Initial residual = 0.000390893, Final residual = 8.88196e-06, No Iterations 2
ExecutionTime = 3.81 s  ClockTime = 3 s

forceCoeffs forceCoeffs output:
    Cm    = 0.000235735
    Cd    = 0.0120897
    Cl    = 0.180761
    Cl(f) = 0.0906162
    Cl(r) = 0.0901447

Time = 31

smoothSolver:  Solving for Ux, Initial residual = 0.0177292, Final residual = 0.000545514, No Iterations 1
smoothSolver:  Solving for Uz, Initial residual = 0.00923506, Final residual = 0.000405651, No Iterations 1
GAMG:  Solving for p, Initial residual = 0.0748432, Final residual = 0.000731174, No Iterations 31
time step continuity errors : sum local = 3.26362e-05, global = -4.08694e-08, cumulative = -3.66227e-09
smoothSolver:  Solving for omega, Initial residual = 0.000112303, Final residual = 2.47304e-06, No Iterations 2
smoothSolver:  Solving for k, Initial residual = 0.000379301, Final residual = 9.22339e-06, No Iterations 2
ExecutionTime = 3.94 s  ClockTime = 4 s

forceCoeffs forceCoeffs output:
    Cm    = 0.000188871
    Cd    = 0.0118199
    Cl    = 0.183783
    Cl(f) = 0.0920804
    Cl(r) = 0.0917027

Time = 32

smoothSolver:  Solving for Ux, Initial residual = 0.0176262, Final residual = 0.000552379, No Iterations 1
smoothSolver:  Solving for Uz, Initial residual = 0.0088737, Final residual = 0.000391459, No Iterations 1
GAMG:  Solving for p, Initial residual = 0.0728063, Final residual = 0.000725617, No Iterations 28
time step continuity errors : sum local = 3.24481e-05, global = -3.12095e-08, cumulative = -3.48718e-08
smoothSolver:  Solving for omega, Initial residual = 0.000115234, Final residual = 2.39688e-06, No Iterations 2
smoothSolver:  Solving for k, Initial residual = 0.000368346, Final residual = 9.45319e-06, No Iterations 2
ExecutionTime = 4.04 s  ClockTime = 4 s

forceCoeffs forceCoeffs output:
    Cm    = 0.000238801
    Cd    = 0.0115856
    Cl    = 0.186247
    Cl(f) = 0.0933625
    Cl(r) = 0.0928849

Time = 33

smoothSolver:  Solving for Ux, Initial residual = 0.0174744, Final residual = 0.000556951, No Iterations 1
smoothSolver:  Solving for Uz, Initial residual = 0.00857836, Final residual = 0.000378327, No Iterations 1
GAMG:  Solving for p, Initial residual = 0.0706875, Final residual = 0.000706553, No Iterations 31
time step continuity errors : sum local = 3.1989e-05, global = 2.26699e-08, cumulative = -1.22018e-08
smoothSolver:  Solving for omega, Initial residual = 0.000118221, Final residual = 2.32557e-06, No Iterations 2
smoothSolver:  Solving for k, Initial residual = 0.000358587, Final residual = 9.60119e-06, No Iterations 2
ExecutionTime = 4.15 s  ClockTime = 4 s

forceCoeffs forceCoeffs output:
    Cm    = 0.000318297
    Cd    = 0.0115235
    Cl    = 0.1882
    Cl(f) = 0.0944183
    Cl(r) = 0.0937817

Time = 34

smoothSolver:  Solving for Ux, Initial residual = 0.0172885, Final residual = 0.000557955, No Iterations 1
smoothSolver:  Solving for Uz, Initial residual = 0.00835137, Final residual = 0.000366024, No Iterations 1
GAMG:  Solving for p, Initial residual = 0.0681451, Final residual = 0.000646886, No Iterations 32
time step continuity errors : sum local = 2.96631e-05, global = -3.36301e-08, cumulative = -4.58319e-08
smoothSolver:  Solving for omega, Initial residual = 0.000120215, Final residual = 1.17758e-05, No Iterations 1
smoothSolver:  Solving for k, Initial residual = 0.000348458, Final residual = 9.67594e-06, No Iterations 2
ExecutionTime = 4.27 s  ClockTime = 4 s

forceCoeffs forceCoeffs output:
    Cm    = 0.000318376
    Cd    = 0.0115858
    Cl    = 0.190087
    Cl(f) = 0.0953619
    Cl(r) = 0.0947252

Time = 35

smoothSolver:  Solving for Ux, Initial residual = 0.0171379, Final residual = 0.000558367, No Iterations 1
smoothSolver:  Solving for Uz, Initial residual = 0.00813183, Final residual = 0.000353687, No Iterations 1
GAMG:  Solving for p, Initial residual = 0.0659489, Final residual = 0.000637653, No Iterations 29
time step continuity errors : sum local = 2.93468e-05, global = 4.00444e-08, cumulative = -5.7875e-09
smoothSolver:  Solving for omega, Initial residual = 0.000123675, Final residual = 1.21574e-05, No Iterations 1
smoothSolver:  Solving for k, Initial residual = 0.000340924, Final residual = 9.75377e-06, No Iterations 2
ExecutionTime = 4.38 s  ClockTime = 4 s

forceCoeffs forceCoeffs output:
    Cm    = 0.000202166
    Cd    = 0.0116338
    Cl    = 0.192262
    Cl(f) = 0.0963331
    Cl(r) = 0.0959288

Time = 36

smoothSolver:  Solving for Ux, Initial residual = 0.0169984, Final residual = 0.000560766, No Iterations 1
smoothSolver:  Solving for Uz, Initial residual = 0.00788963, Final residual = 0.000340115, No Iterations 1
GAMG:  Solving for p, Initial residual = 0.0643862, Final residual = 0.000620449, No Iterations 26
time step continuity errors : sum local = 2.83591e-05, global = -5.11378e-08, cumulative = -5.69253e-08
smoothSolver:  Solving for omega, Initial residual = 0.000122985, Final residual = 1.20882e-05, No Iterations 1
smoothSolver:  Solving for k, Initial residual = 0.000334477, Final residual = 9.75832e-06, No Iterations 2
ExecutionTime = 4.48 s  ClockTime = 4 s

forceCoeffs forceCoeffs output:
    Cm    = 2.85739e-05
    Cd    = 0.0115873
    Cl    = 0.19475
    Cl(f) = 0.0974038
    Cl(r) = 0.0973466

Time = 37

smoothSolver:  Solving for Ux, Initial residual = 0.0168562, Final residual = 0.000564112, No Iterations 1
smoothSolver:  Solving for Uz, Initial residual = 0.0076486, Final residual = 0.000325924, No Iterations 1
GAMG:  Solving for p, Initial residual = 0.0630648, Final residual = 0.000622801, No Iterations 24
time step continuity errors : sum local = 2.81249e-05, global = 2.92653e-09, cumulative = -5.39988e-08
smoothSolver:  Solving for omega, Initial residual = 0.000119037, Final residual = 1.17925e-05, No Iterations 1
smoothSolver:  Solving for k, Initial residual = 0.000326877, Final residual = 9.7079e-06, No Iterations 2
ExecutionTime = 4.57 s  ClockTime = 4 s

forceCoeffs forceCoeffs output:
    Cm    = -0.000114106
    Cd    = 0.0114814
    Cl    = 0.197354
    Cl(f) = 0.0985629
    Cl(r) = 0.0987911

Time = 38

smoothSolver:  Solving for Ux, Initial residual = 0.0166617, Final residual = 0.000565521, No Iterations 1
smoothSolver:  Solving for Uz, Initial residual = 0.00745273, Final residual = 0.000313802, No Iterations 1
GAMG:  Solving for p, Initial residual = 0.0617038, Final residual = 0.00058137, No Iterations 26
time step continuity errors : sum local = 2.60449e-05, global = 2.7991e-08, cumulative = -2.60077e-08
smoothSolver:  Solving for omega, Initial residual = 0.00011348, Final residual = 2.33479e-06, No Iterations 2
smoothSolver:  Solving for k, Initial residual = 0.000318322, Final residual = 9.63774e-06, No Iterations 2
ExecutionTime = 4.68 s  ClockTime = 4 s

forceCoeffs forceCoeffs output:
    Cm    = -0.000180595
    Cd    = 0.0114068
    Cl    = 0.199883
    Cl(f) = 0.099761
    Cl(r) = 0.100122

Time = 39

smoothSolver:  Solving for Ux, Initial residual = 0.0164607, Final residual = 0.0005631, No Iterations 1
smoothSolver:  Solving for Uz, Initial residual = 0.00731941, Final residual = 0.000303196, No Iterations 1
GAMG:  Solving for p, Initial residual = 0.060182, Final residual = 0.000594464, No Iterations 25
time step continuity errors : sum local = 2.66512e-05, global = -9.77484e-09, cumulative = -3.57826e-08
smoothSolver:  Solving for omega, Initial residual = 0.000105027, Final residual = 1.04776e-05, No Iterations 1
smoothSolver:  Solving for k, Initial residual = 0.000306437, Final residual = 9.47269e-06, No Iterations 2
ExecutionTime = 4.77 s  ClockTime = 4 s

forceCoeffs forceCoeffs output:
    Cm    = -0.000194835
    Cd    = 0.0114173
    Cl    = 0.202303
    Cl(f) = 0.100957
    Cl(r) = 0.101346

Time = 40

smoothSolver:  Solving for Ux, Initial residual = 0.016279, Final residual = 0.000558251, No Iterations 1
smoothSolver:  Solving for Uz, Initial residual = 0.00720739, Final residual = 0.000293561, No Iterations 1
GAMG:  Solving for p, Initial residual = 0.0580438, Final residual = 0.00054611, No Iterations 25
time step continuity errors : sum local = 2.46712e-05, global = 5.55613e-09, cumulative = -3.02264e-08
smoothSolver:  Solving for omega, Initial residual = 0.000102022, Final residual = 2.1303e-06, No Iterations 2
smoothSolver:  Solving for k, Initial residual = 0.00029454, Final residual = 9.33904e-06, No Iterations 2
ExecutionTime = 4.87 s  ClockTime = 4 s

forceCoeffs forceCoeffs output:
    Cm    = -0.000217526
    Cd    = 0.0114894
    Cl    = 0.204714
    Cl(f) = 0.10214
    Cl(r) = 0.102575

Time = 41

smoothSolver:  Solving for Ux, Initial residual = 0.0160463, Final residual = 0.000553361, No Iterations 1
smoothSolver:  Solving for Uz, Initial residual = 0.00709462, Final residual = 0.000285404, No Iterations 1
GAMG:  Solving for p, Initial residual = 0.0558722, Final residual = 0.000547562, No Iterations 23
time step continuity errors : sum local = 2.49334e-05, global = 2.65594e-09, cumulative = -2.75705e-08
smoothSolver:  Solving for omega, Initial residual = 9.58267e-05, Final residual = 1.97325e-06, No Iterations 2
smoothSolver:  Solving for k, Initial residual = 0.000282354, Final residual = 9.1793e-06, No Iterations 2
ExecutionTime = 4.96 s  ClockTime = 5 s

forceCoeffs forceCoeffs output:
    Cm    = -0.000302467
    Cd    = 0.0115602
    Cl    = 0.207237
    Cl(f) = 0.103316
    Cl(r) = 0.103921

Time = 42

smoothSolver:  Solving for Ux, Initial residual = 0.0157595, Final residual = 0.000548517, No Iterations 1
smoothSolver:  Solving for Uz, Initial residual = 0.00698249, Final residual = 0.000277216, No Iterations 1
GAMG:  Solving for p, Initial residual = 0.0535892, Final residual = 0.0005119, No Iterations 22
time step continuity errors : sum local = 2.3377e-05, global = -3.49179e-08, cumulative = -6.24884e-08
smoothSolver:  Solving for omega, Initial residual = 9.06974e-05, Final residual = 1.86607e-06, No Iterations 2
smoothSolver:  Solving for k, Initial residual = 0.00027006, Final residual = 9.02096e-06, No Iterations 2
ExecutionTime = 5.05 s  ClockTime = 5 s

forceCoeffs forceCoeffs output:
    Cm    = -0.000464506
    Cd    = 0.0115907
    Cl    = 0.209908
    Cl(f) = 0.10449
    Cl(r) = 0.105419

Time = 43

smoothSolver:  Solving for Ux, Initial residual = 0.0154799, Final residual = 0.000543045, No Iterations 1
smoothSolver:  Solving for Uz, Initial residual = 0.00688524, Final residual = 0.00026809, No Iterations 1
GAMG:  Solving for p, Initial residual = 0.0520356, Final residual = 0.000519931, No Iterations 21
time step continuity errors : sum local = 2.36864e-05, global = 3.46645e-08, cumulative = -2.78239e-08
smoothSolver:  Solving for omega, Initial residual = 8.60152e-05, Final residual = 1.77985e-06, No Iterations 2
smoothSolver:  Solving for k, Initial residual = 0.000257774, Final residual = 8.83722e-06, No Iterations 2
ExecutionTime = 5.13 s  ClockTime = 5 s

forceCoeffs forceCoeffs output:
    Cm    = -0.000682838
    Cd    = 0.0115933
    Cl    = 0.212685
    Cl(f) = 0.105659
    Cl(r) = 0.107025

Time = 44

smoothSolver:  Solving for Ux, Initial residual = 0.0152475, Final residual = 0.000536188, No Iterations 1
smoothSolver:  Solving for Uz, Initial residual = 0.00680261, Final residual = 0.000259593, No Iterations 1
GAMG:  Solving for p, Initial residual = 0.0506613, Final residual = 0.000470238, No Iterations 23
time step continuity errors : sum local = 2.13261e-05, global = 3.03654e-09, cumulative = -2.47874e-08
smoothSolver:  Solving for omega, Initial residual = 8.15004e-05, Final residual = 1.70111e-06, No Iterations 2
smoothSolver:  Solving for k, Initial residual = 0.000245939, Final residual = 8.63317e-06, No Iterations 2
ExecutionTime = 5.22 s  ClockTime = 5 s

forceCoeffs forceCoeffs output:
    Cm    = -0.000918618
    Cd    = 0.0116081
    Cl    = 0.215494
    Cl(f) = 0.106828
    Cl(r) = 0.108666

Time = 45

smoothSolver:  Solving for Ux, Initial residual = 0.014997, Final residual = 0.000527604, No Iterations 1
smoothSolver:  Solving for Uz, Initial residual = 0.00672897, Final residual = 0.000252258, No Iterations 1
GAMG:  Solving for p, Initial residual = 0.0491972, Final residual = 0.000456674, No Iterations 22
time step continuity errors : sum local = 2.06651e-05, global = -1.01169e-09, cumulative = -2.57991e-08
smoothSolver:  Solving for omega, Initial residual = 7.76459e-05, Final residual = 1.62372e-06, No Iterations 2
smoothSolver:  Solving for k, Initial residual = 0.000235586, Final residual = 8.44195e-06, No Iterations 2
ExecutionTime = 5.3 s  ClockTime = 5 s

forceCoeffs forceCoeffs output:
    Cm    = -0.00112022
    Cd    = 0.011659
    Cl    = 0.218273
    Cl(f) = 0.108017
    Cl(r) = 0.110257

Time = 46

smoothSolver:  Solving for Ux, Initial residual = 0.01471, Final residual = 0.000518362, No Iterations 1
smoothSolver:  Solving for Uz, Initial residual = 0.00666228, Final residual = 0.00024656, No Iterations 1
GAMG:  Solving for p, Initial residual = 0.0474403, Final residual = 0.000469857, No Iterations 21
time step continuity errors : sum local = 2.12988e-05, global = 2.58424e-09, cumulative = -2.32148e-08
smoothSolver:  Solving for omega, Initial residual = 7.41535e-05, Final residual = 1.55523e-06, No Iterations 2
smoothSolver:  Solving for k, Initial residual = 0.000225816, Final residual = 8.27018e-06, No Iterations 2
ExecutionTime = 5.39 s  ClockTime = 5 s

forceCoeffs forceCoeffs output:
    Cm    = -0.00125891
    Cd    = 0.0117349
    Cl    = 0.221004
    Cl(f) = 0.109243
    Cl(r) = 0.111761

Time = 47

smoothSolver:  Solving for Ux, Initial residual = 0.0144174, Final residual = 0.00050841, No Iterations 1
smoothSolver:  Solving for Uz, Initial residual = 0.00662172, Final residual = 0.000241775, No Iterations 1
GAMG:  Solving for p, Initial residual = 0.0456628, Final residual = 0.000448097, No Iterations 21
time step continuity errors : sum local = 2.03903e-05, global = 5.22669e-10, cumulative = -2.26921e-08
smoothSolver:  Solving for omega, Initial residual = 7.10506e-05, Final residual = 1.49726e-06, No Iterations 2
smoothSolver:  Solving for k, Initial residual = 0.000216237, Final residual = 8.11028e-06, No Iterations 2
ExecutionTime = 5.48 s  ClockTime = 5 s

forceCoeffs forceCoeffs output:
    Cm    = -0.00133513
    Cd    = 0.0118024
    Cl    = 0.223695
    Cl(f) = 0.110513
    Cl(r) = 0.113183

Time = 48

smoothSolver:  Solving for Ux, Initial residual = 0.0141463, Final residual = 0.000498371, No Iterations 1
smoothSolver:  Solving for Uz, Initial residual = 0.00658056, Final residual = 0.000236798, No Iterations 1
GAMG:  Solving for p, Initial residual = 0.0438422, Final residual = 0.000432417, No Iterations 21
time step continuity errors : sum local = 1.97399e-05, global = 6.78e-11, cumulative = -2.26243e-08
smoothSolver:  Solving for omega, Initial residual = 6.78686e-05, Final residual = 1.44344e-06, No Iterations 2
smoothSolver:  Solving for k, Initial residual = 0.000207144, Final residual = 7.95355e-06, No Iterations 2
ExecutionTime = 5.56 s  ClockTime = 5 s

forceCoeffs forceCoeffs output:
    Cm    = -0.00137488
    Cd    = 0.0118378
    Cl    = 0.226359
    Cl(f) = 0.111805
    Cl(r) = 0.114555

Time = 49

smoothSolver:  Solving for Ux, Initial residual = 0.0139109, Final residual = 0.000488284, No Iterations 1
smoothSolver:  Solving for Uz, Initial residual = 0.00653505, Final residual = 0.000231506, No Iterations 1
GAMG:  Solving for p, Initial residual = 0.0422946, Final residual = 0.000407945, No Iterations 20
time step continuity errors : sum local = 1.86425e-05, global = 2.49154e-11, cumulative = -2.25994e-08
smoothSolver:  Solving for omega, Initial residual = 6.4836e-05, Final residual = 1.39283e-06, No Iterations 2
smoothSolver:  Solving for k, Initial residual = 0.000197938, Final residual = 7.79601e-06, No Iterations 2
ExecutionTime = 5.64 s  ClockTime = 5 s

forceCoeffs forceCoeffs output:
    Cm    = -0.00142103
    Cd    = 0.0118463
    Cl    = 0.229018
    Cl(f) = 0.113088
    Cl(r) = 0.11593

Time = 50

smoothSolver:  Solving for Ux, Initial residual = 0.0136572, Final residual = 0.000477147, No Iterations 1
smoothSolver:  Solving for Uz, Initial residual = 0.00648997, Final residual = 0.00022751, No Iterations 1
GAMG:  Solving for p, Initial residual = 0.0409865, Final residual = 0.000391438, No Iterations 20
time step continuity errors : sum local = 1.78775e-05, global = -1.25054e-09, cumulative = -2.385e-08
smoothSolver:  Solving for omega, Initial residual = 6.18147e-05, Final residual = 1.34229e-06, No Iterations 2
smoothSolver:  Solving for k, Initial residual = 0.000189082, Final residual = 7.64372e-06, No Iterations 2
ExecutionTime = 5.76 s  ClockTime = 5 s

forceCoeffs forceCoeffs output:
    Cm    = -0.00150592
    Cd    = 0.0118535
    Cl    = 0.231694
    Cl(f) = 0.114341
    Cl(r) = 0.117353

Time = 51

smoothSolver:  Solving for Ux, Initial residual = 0.0134001, Final residual = 0.000466455, No Iterations 1
smoothSolver:  Solving for Uz, Initial residual = 0.00646869, Final residual = 0.000225579, No Iterations 1
GAMG:  Solving for p, Initial residual = 0.0396042, Final residual = 0.000377308, No Iterations 20
time step continuity errors : sum local = 1.72238e-05, global = -8.641e-10, cumulative = -2.47141e-08
smoothSolver:  Solving for omega, Initial residual = 5.89827e-05, Final residual = 1.28612e-06, No Iterations 2
smoothSolver:  Solving for k, Initial residual = 0.00018035, Final residual = 7.49863e-06, No Iterations 2
ExecutionTime = 5.88 s  ClockTime = 5 s

forceCoeffs forceCoeffs output:
    Cm    = -0.00163166
    Cd    = 0.0118809
    Cl    = 0.234399
    Cl(f) = 0.115568
    Cl(r) = 0.118831

Time = 52

smoothSolver:  Solving for Ux, Initial residual = 0.0131591, Final residual = 0.000457455, No Iterations 1
smoothSolver:  Solving for Uz, Initial residual = 0.00646794, Final residual = 0.000224913, No Iterations 1
GAMG:  Solving for p, Initial residual = 0.0380985, Final residual = 0.000353084, No Iterations 20
time step continuity errors : sum local = 1.61253e-05, global = -1.97968e-11, cumulative = -2.47339e-08
smoothSolver:  Solving for omega, Initial residual = 5.61656e-05, Final residual = 1.22776e-06, No Iterations 2
smoothSolver:  Solving for k, Initial residual = 0.000171878, Final residual = 7.34509e-06, No Iterations 2
ExecutionTime = 5.97 s  ClockTime = 6 s

forceCoeffs forceCoeffs output:
    Cm    = -0.00176196
    Cd    = 0.0119273
    Cl    = 0.23711
    Cl(f) = 0.116793
    Cl(r) = 0.120317

Time = 53

smoothSolver:  Solving for Ux, Initial residual = 0.0129554, Final residual = 0.000448624, No Iterations 1
smoothSolver:  Solving for Uz, Initial residual = 0.00647172, Final residual = 0.000224326, No Iterations 1
GAMG:  Solving for p, Initial residual = 0.0367775, Final residual = 0.000356142, No Iterations 19
time step continuity errors : sum local = 1.6299e-05, global = -1.28778e-09, cumulative = -2.60216e-08
smoothSolver:  Solving for omega, Initial residual = 5.348e-05, Final residual = 1.16943e-06, No Iterations 2
smoothSolver:  Solving for k, Initial residual = 0.000164279, Final residual = 7.18223e-06, No Iterations 2
ExecutionTime = 6.05 s  ClockTime = 6 s

forceCoeffs forceCoeffs output:
    Cm    = -0.00183832
    Cd    = 0.0119707
    Cl    = 0.23976
    Cl(f) = 0.118042
    Cl(r) = 0.121718

Time = 54

smoothSolver:  Solving for Ux, Initial residual = 0.0127485, Final residual = 0.000439138, No Iterations 1
smoothSolver:  Solving for Uz, Initial residual = 0.00646463, Final residual = 0.000223449, No Iterations 1
GAMG:  Solving for p, Initial residual = 0.0354588, Final residual = 0.000339197, No Iterations 19
time step continuity errors : sum local = 1.5569e-05, global = -1.03202e-09, cumulative = -2.70537e-08
smoothSolver:  Solving for omega, Initial residual = 5.09286e-05, Final residual = 1.11654e-06, No Iterations 2
smoothSolver:  Solving for k, Initial residual = 0.000157083, Final residual = 7.01733e-06, No Iterations 2
ExecutionTime = 6.13 s  ClockTime = 6 s

forceCoeffs forceCoeffs output:
    Cm    = -0.00181539
    Cd    = 0.011986
    Cl    = 0.242276
    Cl(f) = 0.119323
    Cl(r) = 0.122953

Time = 55

smoothSolver:  Solving for Ux, Initial residual = 0.0125317, Final residual = 0.000429066, No Iterations 1
smoothSolver:  Solving for Uz, Initial residual = 0.00646464, Final residual = 0.000223329, No Iterations 1
GAMG:  Solving for p, Initial residual = 0.0339792, Final residual = 0.000314485, No Iterations 19
time step continuity errors : sum local = 1.44697e-05, global = 5.6337e-10, cumulative = -2.64903e-08
smoothSolver:  Solving for omega, Initial residual = 4.8534e-05, Final residual = 1.07413e-06, No Iterations 2
smoothSolver:  Solving for k, Initial residual = 0.000150116, Final residual = 6.85507e-06, No Iterations 2
ExecutionTime = 6.21 s  ClockTime = 6 s

forceCoeffs forceCoeffs output:
    Cm    = -0.00168603
    Cd    = 0.0119633
    Cl    = 0.244617
    Cl(f) = 0.120623
    Cl(r) = 0.123995

Time = 56

smoothSolver:  Solving for Ux, Initial residual = 0.0123233, Final residual = 0.000418959, No Iterations 1
smoothSolver:  Solving for Uz, Initial residual = 0.00648233, Final residual = 0.000224986, No Iterations 1
GAMG:  Solving for p, Initial residual = 0.0327875, Final residual = 0.000311994, No Iterations 18
time step continuity errors : sum local = 1.43777e-05, global = 2.00208e-10, cumulative = -2.62901e-08
smoothSolver:  Solving for omega, Initial residual = 4.63298e-05, Final residual = 1.04432e-06, No Iterations 2
smoothSolver:  Solving for k, Initial residual = 0.000143471, Final residual = 6.7011e-06, No Iterations 2
ExecutionTime = 6.29 s  ClockTime = 6 s

forceCoeffs forceCoeffs output:
    Cm    = -0.0014936
    Cd    = 0.0119161
    Cl    = 0.246813
    Cl(f) = 0.121913
    Cl(r) = 0.1249

Time = 57

smoothSolver:  Solving for Ux, Initial residual = 0.0121641, Final residual = 0.000410066, No Iterations 1
smoothSolver:  Solving for Uz, Initial residual = 0.00652169, Final residual = 0.000227535, No Iterations 1
GAMG:  Solving for p, Initial residual = 0.0314753, Final residual = 0.000291869, No Iterations 18
time step continuity errors : sum local = 1.34646e-05, global = 8.87041e-11, cumulative = -2.62014e-08
smoothSolver:  Solving for omega, Initial residual = 4.42641e-05, Final residual = 1.01675e-06, No Iterations 2
smoothSolver:  Solving for k, Initial residual = 0.000137164, Final residual = 6.55718e-06, No Iterations 2
ExecutionTime = 6.38 s  ClockTime = 6 s

forceCoeffs forceCoeffs output:
    Cm    = -0.00129951
    Cd    = 0.0118686
    Cl    = 0.248937
    Cl(f) = 0.123169
    Cl(r) = 0.125768

Time = 58

smoothSolver:  Solving for Ux, Initial residual = 0.012009, Final residual = 0.000402408, No Iterations 1
smoothSolver:  Solving for Uz, Initial residual = 0.00656653, Final residual = 0.000230923, No Iterations 1
GAMG:  Solving for p, Initial residual = 0.0302518, Final residual = 0.000291959, No Iterations 18
time step continuity errors : sum local = 1.34822e-05, global = 2.22814e-10, cumulative = -2.59786e-08
smoothSolver:  Solving for omega, Initial residual = 4.22917e-05, Final residual = 9.91568e-07, No Iterations 2
smoothSolver:  Solving for k, Initial residual = 0.000131405, Final residual = 6.44105e-06, No Iterations 2
ExecutionTime = 6.45 s  ClockTime = 6 s

forceCoeffs forceCoeffs output:
    Cm    = -0.00115327
    Cd    = 0.0118395
    Cl    = 0.251072
    Cl(f) = 0.124383
    Cl(r) = 0.126689

Time = 59

smoothSolver:  Solving for Ux, Initial residual = 0.0118344, Final residual = 0.000395069, No Iterations 1
smoothSolver:  Solving for Uz, Initial residual = 0.00661757, Final residual = 0.000235389, No Iterations 1
GAMG:  Solving for p, Initial residual = 0.0291612, Final residual = 0.000280754, No Iterations 18
time step continuity errors : sum local = 1.29851e-05, global = 2.07905e-10, cumulative = -2.57707e-08
smoothSolver:  Solving for omega, Initial residual = 4.04389e-05, Final residual = 9.69391e-07, No Iterations 2
smoothSolver:  Solving for k, Initial residual = 0.000125869, Final residual = 6.33075e-06, No Iterations 2
ExecutionTime = 6.53 s  ClockTime = 6 s

forceCoeffs forceCoeffs output:
    Cm    = -0.00105999
    Cd    = 0.01183
    Cl    = 0.253245
    Cl(f) = 0.125562
    Cl(r) = 0.127682

Time = 60

smoothSolver:  Solving for Ux, Initial residual = 0.0116623, Final residual = 0.000387759, No Iterations 1
smoothSolver:  Solving for Uz, Initial residual = 0.00667259, Final residual = 0.000240124, No Iterations 1
GAMG:  Solving for p, Initial residual = 0.0280837, Final residual = 0.000258018, No Iterations 18
time step continuity errors : sum local = 1.19623e-05, global = 3.10693e-10, cumulative = -2.546e-08
smoothSolver:  Solving for omega, Initial residual = 3.87351e-05, Final residual = 9.51944e-07, No Iterations 2
smoothSolver:  Solving for k, Initial residual = 0.000120901, Final residual = 6.21742e-06, No Iterations 2
ExecutionTime = 6.6 s  ClockTime = 6 s

forceCoeffs forceCoeffs output:
    Cm    = -0.000975358
    Cd    = 0.0118243
    Cl    = 0.255413
    Cl(f) = 0.126731
    Cl(r) = 0.128682

Time = 61

smoothSolver:  Solving for Ux, Initial residual = 0.0115266, Final residual = 0.000381054, No Iterations 1
smoothSolver:  Solving for Uz, Initial residual = 0.00673225, Final residual = 0.000244318, No Iterations 1
GAMG:  Solving for p, Initial residual = 0.0270206, Final residual = 0.000259549, No Iterations 17
time step continuity errors : sum local = 1.20666e-05, global = 1.76151e-10, cumulative = -2.52838e-08
smoothSolver:  Solving for omega, Initial residual = 3.71533e-05, Final residual = 9.40235e-07, No Iterations 2
smoothSolver:  Solving for k, Initial residual = 0.000116587, Final residual = 6.12513e-06, No Iterations 2
ExecutionTime = 6.68 s  ClockTime = 6 s

forceCoeffs forceCoeffs output:
    Cm    = -0.000834038
    Cd    = 0.0118012
    Cl    = 0.257482
    Cl(f) = 0.127907
    Cl(r) = 0.129575

Time = 62

smoothSolver:  Solving for Ux, Initial residual = 0.0114109, Final residual = 0.000375141, No Iterations 1
smoothSolver:  Solving for Uz, Initial residual = 0.00679263, Final residual = 0.000248228, No Iterations 1
GAMG:  Solving for p, Initial residual = 0.0260247, Final residual = 0.000244336, No Iterations 17
time step continuity errors : sum local = 1.13873e-05, global = 5.78053e-10, cumulative = -2.47058e-08
smoothSolver:  Solving for omega, Initial residual = 3.56797e-05, Final residual = 9.3161e-07, No Iterations 2
smoothSolver:  Solving for k, Initial residual = 0.000112882, Final residual = 6.05877e-06, No Iterations 2
ExecutionTime = 6.75 s  ClockTime = 6 s

forceCoeffs forceCoeffs output:
    Cm    = -0.000590634
    Cd    = 0.0117465
    Cl    = 0.259365
    Cl(f) = 0.129092
    Cl(r) = 0.130273

Time = 63

smoothSolver:  Solving for Ux, Initial residual = 0.0112895, Final residual = 0.000369337, No Iterations 1
smoothSolver:  Solving for Uz, Initial residual = 0.00685354, Final residual = 0.000252681, No Iterations 1
GAMG:  Solving for p, Initial residual = 0.0249149, Final residual = 0.000226029, No Iterations 17
time step continuity errors : sum local = 1.05527e-05, global = 4.00251e-10, cumulative = -2.43055e-08
smoothSolver:  Solving for omega, Initial residual = 3.42932e-05, Final residual = 9.22434e-07, No Iterations 2
smoothSolver:  Solving for k, Initial residual = 0.000109692, Final residual = 6.01443e-06, No Iterations 2
ExecutionTime = 6.83 s  ClockTime = 6 s

forceCoeffs forceCoeffs output:
    Cm    = -0.00024845
    Cd    = 0.0116632
    Cl    = 0.261036
    Cl(f) = 0.130269
    Cl(r) = 0.130766

Time = 64

smoothSolver:  Solving for Ux, Initial residual = 0.0111629, Final residual = 0.000363259, No Iterations 1
smoothSolver:  Solving for Uz, Initial residual = 0.00692233, Final residual = 0.000258718, No Iterations 1
GAMG:  Solving for p, Initial residual = 0.023984, Final residual = 0.000223407, No Iterations 16
time step continuity errors : sum local = 1.04421e-05, global = 3.03107e-10, cumulative = -2.40024e-08
smoothSolver:  Solving for omega, Initial residual = 3.312e-05, Final residual = 9.14028e-07, No Iterations 2
smoothSolver:  Solving for k, Initial residual = 0.000106854, Final residual = 5.98222e-06, No Iterations 2
ExecutionTime = 6.9 s  ClockTime = 7 s

forceCoeffs forceCoeffs output:
    Cm    = 0.000138159
    Cd    = 0.0115689
    Cl    = 0.262556
    Cl(f) = 0.131416
    Cl(r) = 0.13114

Time = 65

smoothSolver:  Solving for Ux, Initial residual = 0.0110514, Final residual = 0.000356971, No Iterations 1
smoothSolver:  Solving for Uz, Initial residual = 0.00700423, Final residual = 0.000265213, No Iterations 1
GAMG:  Solving for p, Initial residual = 0.0231483, Final residual = 0.000228509, No Iterations 15
time step continuity errors : sum local = 1.06909e-05, global = -6.47605e-11, cumulative = -2.40672e-08
smoothSolver:  Solving for omega, Initial residual = 3.21173e-05, Final residual = 9.06664e-07, No Iterations 2
smoothSolver:  Solving for k, Initial residual = 0.000104256, Final residual = 5.96209e-06, No Iterations 2
ExecutionTime = 6.97 s  ClockTime = 7 s

forceCoeffs forceCoeffs output:
    Cm    = 0.00050324
    Cd    = 0.0114825
    Cl    = 0.264025
    Cl(f) = 0.132516
    Cl(r) = 0.131509

Time = 66

smoothSolver:  Solving for Ux, Initial residual = 0.0109627, Final residual = 0.000351421, No Iterations 1
smoothSolver:  Solving for Uz, Initial residual = 0.00709442, Final residual = 0.000271872, No Iterations 1
GAMG:  Solving for p, Initial residual = 0.0223095, Final residual = 0.000216513, No Iterations 15
time step continuity errors : sum local = 1.01422e-05, global = -5.04727e-10, cumulative = -2.45719e-08
smoothSolver:  Solving for omega, Initial residual = 3.13325e-05, Final residual = 9.00217e-07, No Iterations 2
smoothSolver:  Solving for k, Initial residual = 0.000102071, Final residual = 5.96522e-06, No Iterations 2
ExecutionTime = 7.04 s  ClockTime = 7 s

forceCoeffs forceCoeffs output:
    Cm    = 0.000805881
    Cd    = 0.0114122
    Cl    = 0.265521
    Cl(f) = 0.133566
    Cl(r) = 0.131955

Time = 67

smoothSolver:  Solving for Ux, Initial residual = 0.0108766, Final residual = 0.000346887, No Iterations 1
smoothSolver:  Solving for Uz, Initial residual = 0.0071762, Final residual = 0.00027811, No Iterations 1
GAMG:  Solving for p, Initial residual = 0.0214327, Final residual = 0.00019486, No Iterations 16
time step continuity errors : sum local = 9.14335e-06, global = -2.60708e-10, cumulative = -2.48326e-08
smoothSolver:  Solving for omega, Initial residual = 3.04267e-05, Final residual = 8.92521e-07, No Iterations 2
smoothSolver:  Solving for k, Initial residual = 9.99858e-05, Final residual = 5.99278e-06, No Iterations 2
ExecutionTime = 7.11 s  ClockTime = 7 s

forceCoeffs forceCoeffs output:
    Cm    = 0.00103579
    Cd    = 0.0113556
    Cl    = 0.267079
    Cl(f) = 0.134575
    Cl(r) = 0.132504

Time = 68

smoothSolver:  Solving for Ux, Initial residual = 0.0107888, Final residual = 0.000343155, No Iterations 1
smoothSolver:  Solving for Uz, Initial residual = 0.00725418, Final residual = 0.000284736, No Iterations 1
GAMG:  Solving for p, Initial residual = 0.0205792, Final residual = 0.000188047, No Iterations 16
time step continuity errors : sum local = 8.83996e-06, global = -3.7728e-10, cumulative = -2.52099e-08
smoothSolver:  Solving for omega, Initial residual = 2.97157e-05, Final residual = 8.8144e-07, No Iterations 2
smoothSolver:  Solving for k, Initial residual = 9.83457e-05, Final residual = 6.03312e-06, No Iterations 2
ExecutionTime = 7.18 s  ClockTime = 7 s

forceCoeffs forceCoeffs output:
    Cm    = 0.00121927
    Cd    = 0.011303
    Cl    = 0.268674
    Cl(f) = 0.135556
    Cl(r) = 0.133118

Time = 69

smoothSolver:  Solving for Ux, Initial residual = 0.0107035, Final residual = 0.000340089, No Iterations 1
smoothSolver:  Solving for Uz, Initial residual = 0.00734106, Final residual = 0.000292089, No Iterations 1
GAMG:  Solving for p, Initial residual = 0.0198415, Final residual = 0.000192767, No Iterations 15
time step continuity errors : sum local = 9.07406e-06, global = -2.62743e-10, cumulative = -2.54726e-08
smoothSolver:  Solving for omega, Initial residual = 2.91002e-05, Final residual = 8.68607e-07, No Iterations 2
smoothSolver:  Solving for k, Initial residual = 9.69628e-05, Final residual = 6.07519e-06, No Iterations 2
ExecutionTime = 7.25 s  ClockTime = 7 s

forceCoeffs forceCoeffs output:
    Cm    = 0.00141445
    Cd    = 0.0112405
    Cl    = 0.270218
    Cl(f) = 0.136523
    Cl(r) = 0.133694

Time = 70

smoothSolver:  Solving for Ux, Initial residual = 0.0106254, Final residual = 0.000337782, No Iterations 1
smoothSolver:  Solving for Uz, Initial residual = 0.00745778, Final residual = 0.000300156, No Iterations 1
GAMG:  Solving for p, Initial residual = 0.0190566, Final residual = 0.000175465, No Iterations 15
time step continuity errors : sum local = 8.26475e-06, global = -6.4111e-11, cumulative = -2.55367e-08
smoothSolver:  Solving for omega, Initial residual = 2.84379e-05, Final residual = 8.5519e-07, No Iterations 2
smoothSolver:  Solving for k, Initial residual = 9.5673e-05, Final residual = 6.15185e-06, No Iterations 2
ExecutionTime = 7.32 s  ClockTime = 7 s

forceCoeffs forceCoeffs output:
    Cm    = 0.00167024
    Cd    = 0.011159
    Cl    = 0.27162
    Cl(f) = 0.13748
    Cl(r) = 0.13414

Time = 71

smoothSolver:  Solving for Ux, Initial residual = 0.0105422, Final residual = 0.000336039, No Iterations 1
smoothSolver:  Solving for Uz, Initial residual = 0.00758647, Final residual = 0.000309331, No Iterations 1
GAMG:  Solving for p, Initial residual = 0.0182613, Final residual = 0.000179466, No Iterations 14
time step continuity errors : sum local = 8.45477e-06, global = -1.08594e-10, cumulative = -2.56453e-08
smoothSolver:  Solving for omega, Initial residual = 2.78583e-05, Final residual = 8.50968e-07, No Iterations 2
smoothSolver:  Solving for k, Initial residual = 9.45755e-05, Final residual = 6.21948e-06, No Iterations 2
ExecutionTime = 7.39 s  ClockTime = 7 s

forceCoeffs forceCoeffs output:
    Cm    = 0.00199644
    Cd    = 0.0110597
    Cl    = 0.272845
    Cl(f) = 0.138419
    Cl(r) = 0.134426

Time = 72

smoothSolver:  Solving for Ux, Initial residual = 0.0104536, Final residual = 0.000334424, No Iterations 1
smoothSolver:  Solving for Uz, Initial residual = 0.00771835, Final residual = 0.000319326, No Iterations 1
GAMG:  Solving for p, Initial residual = 0.0175024, Final residual = 0.000161466, No Iterations 15
time step continuity errors : sum local = 7.60855e-06, global = 9.41078e-11, cumulative = -2.55512e-08
smoothSolver:  Solving for omega, Initial residual = 2.73448e-05, Final residual = 8.50051e-07, No Iterations 2
smoothSolver:  Solving for k, Initial residual = 9.37344e-05, Final residual = 6.28403e-06, No Iterations 2
ExecutionTime = 7.46 s  ClockTime = 7 s

forceCoeffs forceCoeffs output:
    Cm    = 0.00237608
    Cd    = 0.0109486
    Cl    = 0.273908
    Cl(f) = 0.13933
    Cl(r) = 0.134578

Time = 73

smoothSolver:  Solving for Ux, Initial residual = 0.0103579, Final residual = 0.000332752, No Iterations 1
smoothSolver:  Solving for Uz, Initial residual = 0.00785318, Final residual = 0.000330486, No Iterations 1
GAMG:  Solving for p, Initial residual = 0.016806, Final residual = 0.000166427, No Iterations 15
time step continuity errors : sum local = 7.84638e-06, global = 5.61786e-11, cumulative = -2.54951e-08
smoothSolver:  Solving for omega, Initial residual = 2.67214e-05, Final residual = 8.4908e-07, No Iterations 2
smoothSolver:  Solving for k, Initial residual = 9.29812e-05, Final residual = 6.37435e-06, No Iterations 2
ExecutionTime = 7.53 s  ClockTime = 7 s

forceCoeffs forceCoeffs output:
    Cm    = 0.00275769
    Cd    = 0.0108379
    Cl    = 0.274882
    Cl(f) = 0.140199
    Cl(r) = 0.134683

Time = 74

smoothSolver:  Solving for Ux, Initial residual = 0.0102552, Final residual = 0.000331341, No Iterations 1
smoothSolver:  Solving for Uz, Initial residual = 0.00799819, Final residual = 0.000342555, No Iterations 1
GAMG:  Solving for p, Initial residual = 0.0161327, Final residual = 0.000152609, No Iterations 16
time step continuity errors : sum local = 7.20138e-06, global = -3.36728e-10, cumulative = -2.58318e-08
smoothSolver:  Solving for omega, Initial residual = 2.63061e-05, Final residual = 8.49746e-07, No Iterations 2
smoothSolver:  Solving for k, Initial residual = 9.23447e-05, Final residual = 6.46072e-06, No Iterations 2
ExecutionTime = 7.6 s  ClockTime = 7 s

forceCoeffs forceCoeffs output:
    Cm    = 0.0031029
    Cd    = 0.0107355
    Cl    = 0.275832
    Cl(f) = 0.141019
    Cl(r) = 0.134813

Time = 75

smoothSolver:  Solving for Ux, Initial residual = 0.0101434, Final residual = 0.000330717, No Iterations 1
smoothSolver:  Solving for Uz, Initial residual = 0.00815357, Final residual = 0.000355026, No Iterations 1
GAMG:  Solving for p, Initial residual = 0.0153609, Final residual = 0.000151191, No Iterations 15
time step continuity errors : sum local = 7.14044e-06, global = 5.2909e-10, cumulative = -2.53027e-08
smoothSolver:  Solving for omega, Initial residual = 2.59184e-05, Final residual = 8.49279e-07, No Iterations 2
smoothSolver:  Solving for k, Initial residual = 9.19902e-05, Final residual = 6.5597e-06, No Iterations 2
ExecutionTime = 7.67 s  ClockTime = 7 s

forceCoeffs forceCoeffs output:
    Cm    = 0.00337894
    Cd    = 0.0106482
    Cl    = 0.27682
    Cl(f) = 0.141789
    Cl(r) = 0.135031

Time = 76

smoothSolver:  Solving for Ux, Initial residual = 0.0100222, Final residual = 0.000331376, No Iterations 1
smoothSolver:  Solving for Uz, Initial residual = 0.00831151, Final residual = 0.000367318, No Iterations 1
GAMG:  Solving for p, Initial residual = 0.0147362, Final residual = 0.00014081, No Iterations 15
time step continuity errors : sum local = 6.65343e-06, global = 3.76328e-10, cumulative = -2.49264e-08
smoothSolver:  Solving for omega, Initial residual = 2.55698e-05, Final residual = 8.46691e-07, No Iterations 2
smoothSolver:  Solving for k, Initial residual = 9.18974e-05, Final residual = 6.67956e-06, No Iterations 2
ExecutionTime = 7.74 s  ClockTime = 7 s

forceCoeffs forceCoeffs output:
    Cm    = 0.00359805
    Cd    = 0.0105719
    Cl    = 0.277842
    Cl(f) = 0.142519
    Cl(r) = 0.135323

Time = 77

smoothSolver:  Solving for Ux, Initial residual = 0.00989229, Final residual = 0.000332951, No Iterations 1
smoothSolver:  Solving for Uz, Initial residual = 0.0084737, Final residual = 0.000378835, No Iterations 1
GAMG:  Solving for p, Initial residual = 0.0141327, Final residual = 0.000127194, No Iterations 15
time step continuity errors : sum local = 6.01046e-06, global = -3.58415e-10, cumulative = -2.52848e-08
smoothSolver:  Solving for omega, Initial residual = 2.5205e-05, Final residual = 8.40336e-07, No Iterations 2
smoothSolver:  Solving for k, Initial residual = 9.16125e-05, Final residual = 6.7746e-06, No Iterations 2
ExecutionTime = 7.82 s  ClockTime = 7 s

forceCoeffs forceCoeffs output:
    Cm    = 0.00378574
    Cd    = 0.0104998
    Cl    = 0.278869
    Cl(f) = 0.14322
    Cl(r) = 0.135649

Time = 78

smoothSolver:  Solving for Ux, Initial residual = 0.0097524, Final residual = 0.000335119, No Iterations 1
smoothSolver:  Solving for Uz, Initial residual = 0.00863991, Final residual = 0.000389786, No Iterations 1
GAMG:  Solving for p, Initial residual = 0.0136389, Final residual = 0.000128155, No Iterations 15
time step continuity errors : sum local = 6.05505e-06, global = -1.7359e-10, cumulative = -2.54584e-08
smoothSolver:  Solving for omega, Initial residual = 2.48125e-05, Final residual = 8.29502e-07, No Iterations 2
smoothSolver:  Solving for k, Initial residual = 9.13949e-05, Final residual = 6.86717e-06, No Iterations 2
ExecutionTime = 7.89 s  ClockTime = 8 s

forceCoeffs forceCoeffs output:
    Cm    = 0.00397337
    Cd    = 0.0104246
    Cl    = 0.279855
    Cl(f) = 0.143901
    Cl(r) = 0.135954

Time = 79

smoothSolver:  Solving for Ux, Initial residual = 0.00960743, Final residual = 0.000337409, No Iterations 1
smoothSolver:  Solving for Uz, Initial residual = 0.00880277, Final residual = 0.000400569, No Iterations 1
GAMG:  Solving for p, Initial residual = 0.0131574, Final residual = 0.000125744, No Iterations 15
time step continuity errors : sum local = 5.94122e-06, global = -6.15895e-11, cumulative = -2.552e-08
smoothSolver:  Solving for omega, Initial residual = 2.42155e-05, Final residual = 8.14805e-07, No Iterations 2
smoothSolver:  Solving for k, Initial residual = 9.08617e-05, Final residual = 6.93977e-06, No Iterations 2
ExecutionTime = 7.96 s  ClockTime = 8 s

forceCoeffs forceCoeffs output:
    Cm    = 0.00418345
    Cd    = 0.0103415
    Cl    = 0.280757
    Cl(f) = 0.144562
    Cl(r) = 0.136195

Time = 80

smoothSolver:  Solving for Ux, Initial residual = 0.00945926, Final residual = 0.000339809, No Iterations 1
smoothSolver:  Solving for Uz, Initial residual = 0.00894932, Final residual = 0.000411325, No Iterations 1
GAMG:  Solving for p, Initial residual = 0.0125535, Final residual = 0.000120204, No Iterations 16
time step continuity errors : sum local = 5.68139e-06, global = -3.59329e-10, cumulative = -2.58793e-08
smoothSolver:  Solving for omega, Initial residual = 2.38626e-05, Final residual = 7.97301e-07, No Iterations 2
smoothSolver:  Solving for k, Initial residual = 9.04206e-05, Final residual = 7.0042e-06, No Iterations 2
ExecutionTime = 8.03 s  ClockTime = 8 s

forceCoeffs forceCoeffs output:
    Cm    = 0.0044247
    Cd    = 0.0102494
    Cl    = 0.28155
    Cl(f) = 0.1452
    Cl(r) = 0.13635

Time = 81

smoothSolver:  Solving for Ux, Initial residual = 0.00930688, Final residual = 0.000341854, No Iterations 1
smoothSolver:  Solving for Uz, Initial residual = 0.00906713, Final residual = 0.000422035, No Iterations 1
GAMG:  Solving for p, Initial residual = 0.0120955, Final residual = 0.000116231, No Iterations 17
time step continuity errors : sum local = 5.49692e-06, global = 5.05833e-10, cumulative = -2.53734e-08
smoothSolver:  Solving for omega, Initial residual = 2.35055e-05, Final residual = 7.79526e-07, No Iterations 2
smoothSolver:  Solving for k, Initial residual = 9.00255e-05, Final residual = 7.04392e-06, No Iterations 2
ExecutionTime = 8.11 s  ClockTime = 8 s

forceCoeffs forceCoeffs output:
    Cm    = 0.00468961
    Cd    = 0.0101521
    Cl    = 0.282238
    Cl(f) = 0.145809
    Cl(r) = 0.13643

Time = 82

smoothSolver:  Solving for Ux, Initial residual = 0.00915022, Final residual = 0.000343484, No Iterations 1
smoothSolver:  Solving for Uz, Initial residual = 0.00914689, Final residual = 0.000431491, No Iterations 1
GAMG:  Solving for p, Initial residual = 0.0115653, Final residual = 0.000109817, No Iterations 18
time step continuity errors : sum local = 5.19659e-06, global = -3.31017e-11, cumulative = -2.54066e-08
smoothSolver:  Solving for omega, Initial residual = 2.31384e-05, Final residual = 7.59269e-07, No Iterations 2
smoothSolver:  Solving for k, Initial residual = 8.97047e-05, Final residual = 7.07194e-06, No Iterations 2
ExecutionTime = 8.18 s  ClockTime = 8 s

forceCoeffs forceCoeffs output:
    Cm    = 0.00495696
    Cd    = 0.0100566
    Cl    = 0.282851
    Cl(f) = 0.146382
    Cl(r) = 0.136469

Time = 83

smoothSolver:  Solving for Ux, Initial residual = 0.00898593, Final residual = 0.000344637, No Iterations 1
smoothSolver:  Solving for Uz, Initial residual = 0.00918289, Final residual = 0.000439042, No Iterations 1
GAMG:  Solving for p, Initial residual = 0.0110376, Final residual = 0.000101629, No Iterations 17
time step continuity errors : sum local = 4.81102e-06, global = 5.52824e-10, cumulative = -2.48537e-08
smoothSolver:  Solving for omega, Initial residual = 2.28008e-05, Final residual = 7.3992e-07, No Iterations 2
smoothSolver:  Solving for k, Initial residual = 8.93517e-05, Final residual = 7.06057e-06, No Iterations 2
ExecutionTime = 8.27 s  ClockTime = 8 s

forceCoeffs forceCoeffs output:
    Cm    = 0.00520007
    Cd    = 0.00996987
    Cl    = 0.283436
    Cl(f) = 0.146918
    Cl(r) = 0.136518

Time = 84

smoothSolver:  Solving for Ux, Initial residual = 0.0088113, Final residual = 0.000345505, No Iterations 1
smoothSolver:  Solving for Uz, Initial residual = 0.00917234, Final residual = 0.000443512, No Iterations 1
GAMG:  Solving for p, Initial residual = 0.0105913, Final residual = 9.62536e-05, No Iterations 17
time step continuity errors : sum local = 4.55728e-06, global = -7.45687e-10, cumulative = -2.55994e-08
smoothSolver:  Solving for omega, Initial residual = 2.24754e-05, Final residual = 7.18393e-07, No Iterations 2
smoothSolver:  Solving for k, Initial residual = 8.88836e-05, Final residual = 7.02497e-06, No Iterations 2
ExecutionTime = 8.34 s  ClockTime = 8 s

forceCoeffs forceCoeffs output:
    Cm    = 0.00540746
    Cd    = 0.00989406
    Cl    = 0.284021
    Cl(f) = 0.147418
    Cl(r) = 0.136603

Time = 85

smoothSolver:  Solving for Ux, Initial residual = 0.00862698, Final residual = 0.000346128, No Iterations 1
smoothSolver:  Solving for Uz, Initial residual = 0.00910376, Final residual = 0.000443936, No Iterations 1
GAMG:  Solving for p, Initial residual = 0.0102784, Final residual = 9.48269e-05, No Iterations 18
time step continuity errors : sum local = 4.49025e-06, global = 3.23534e-10, cumulative = -2.52759e-08
smoothSolver:  Solving for omega, Initial residual = 2.19916e-05, Final residual = 6.95196e-07, No Iterations 2
smoothSolver:  Solving for k, Initial residual = 8.81395e-05, Final residual = 6.97061e-06, No Iterations 2
ExecutionTime = 8.41 s  ClockTime = 8 s

forceCoeffs forceCoeffs output:
    Cm    = 0.00557237
    Cd    = 0.00982895
    Cl    = 0.284626
    Cl(f) = 0.147885
    Cl(r) = 0.136741

Time = 86

smoothSolver:  Solving for Ux, Initial residual = 0.00843829, Final residual = 0.000346378, No Iterations 1
smoothSolver:  Solving for Uz, Initial residual = 0.00895027, Final residual = 0.000439117, No Iterations 1
GAMG:  Solving for p, Initial residual = 0.00997802, Final residual = 9.78757e-05, No Iterations 18
time step continuity errors : sum local = 4.6358e-06, global = -1.95002e-09, cumulative = -2.72259e-08
smoothSolver:  Solving for omega, Initial residual = 2.1644e-05, Final residual = 6.72241e-07, No Iterations 2
smoothSolver:  Solving for k, Initial residual = 8.73584e-05, Final residual = 6.89067e-06, No Iterations 2
ExecutionTime = 8.49 s  ClockTime = 8 s

forceCoeffs forceCoeffs output:
    Cm    = 0.0057018
    Cd    = 0.00977036
    Cl    = 0.285248
    Cl(f) = 0.148326
    Cl(r) = 0.136922

Time = 87

smoothSolver:  Solving for Ux, Initial residual = 0.00824488, Final residual = 0.000345973, No Iterations 1
smoothSolver:  Solving for Uz, Initial residual = 0.00870963, Final residual = 0.00042947, No Iterations 1
GAMG:  Solving for p, Initial residual = 0.00958893, Final residual = 9.19929e-05, No Iterations 17
time step continuity errors : sum local = 4.35861e-06, global = 1.15427e-09, cumulative = -2.60716e-08
smoothSolver:  Solving for omega, Initial residual = 2.13102e-05, Final residual = 6.47363e-07, No Iterations 2
smoothSolver:  Solving for k, Initial residual = 8.63775e-05, Final residual = 6.77589e-06, No Iterations 2
ExecutionTime = 8.57 s  ClockTime = 8 s

forceCoeffs forceCoeffs output:
    Cm    = 0.00581325
    Cd    = 0.00971256
    Cl    = 0.285862
    Cl(f) = 0.148744
    Cl(r) = 0.137118

Time = 88

smoothSolver:  Solving for Ux, Initial residual = 0.0080535, Final residual = 0.000345077, No Iterations 1
smoothSolver:  Solving for Uz, Initial residual = 0.00843426, Final residual = 0.000418272, No Iterations 1
GAMG:  Solving for p, Initial residual = 0.00921106, Final residual = 8.57354e-05, No Iterations 17
time step continuity errors : sum local = 4.06417e-06, global = 2.33093e-09, cumulative = -2.37407e-08
smoothSolver:  Solving for omega, Initial residual = 2.09465e-05, Final residual = 6.22324e-07, No Iterations 2
smoothSolver:  Solving for k, Initial residual = 8.53814e-05, Final residual = 6.6522e-06, No Iterations 2
ExecutionTime = 8.65 s  ClockTime = 8 s

forceCoeffs forceCoeffs output:
    Cm    = 0.00592287
    Cd    = 0.00965166
    Cl    = 0.286442
    Cl(f) = 0.149144
    Cl(r) = 0.137298

Time = 89

smoothSolver:  Solving for Ux, Initial residual = 0.00786418, Final residual = 0.000343779, No Iterations 1
smoothSolver:  Solving for Uz, Initial residual = 0.00813375, Final residual = 0.000406205, No Iterations 1
GAMG:  Solving for p, Initial residual = 0.00882076, Final residual = 8.48839e-05, No Iterations 19
time step continuity errors : sum local = 4.02534e-06, global = 1.13747e-10, cumulative = -2.3627e-08
smoothSolver:  Solving for omega, Initial residual = 2.05556e-05, Final residual = 5.96084e-07, No Iterations 2
smoothSolver:  Solving for k, Initial residual = 8.43164e-05, Final residual = 6.51328e-06, No Iterations 2
ExecutionTime = 8.73 s  ClockTime = 8 s

forceCoeffs forceCoeffs output:
    Cm    = 0.00604037
    Cd    = 0.009587
    Cl    = 0.286968
    Cl(f) = 0.149524
    Cl(r) = 0.137444

Time = 90

smoothSolver:  Solving for Ux, Initial residual = 0.00767647, Final residual = 0.000341966, No Iterations 1
smoothSolver:  Solving for Uz, Initial residual = 0.00782212, Final residual = 0.000393824, No Iterations 1
GAMG:  Solving for p, Initial residual = 0.00840642, Final residual = 7.79129e-05, No Iterations 20
time step continuity errors : sum local = 3.69536e-06, global = 2.76872e-09, cumulative = -2.08582e-08
smoothSolver:  Solving for omega, Initial residual = 2.01365e-05, Final residual = 5.69574e-07, No Iterations 2
smoothSolver:  Solving for k, Initial residual = 8.29423e-05, Final residual = 6.3409e-06, No Iterations 2
ExecutionTime = 8.81 s  ClockTime = 8 s

forceCoeffs forceCoeffs output:
    Cm    = 0.00616613
    Cd    = 0.00952167
    Cl    = 0.287435
    Cl(f) = 0.149884
    Cl(r) = 0.137551

Time = 91

smoothSolver:  Solving for Ux, Initial residual = 0.00749195, Final residual = 0.000339806, No Iterations 1
smoothSolver:  Solving for Uz, Initial residual = 0.00750804, Final residual = 0.000381077, No Iterations 1
GAMG:  Solving for p, Initial residual = 0.00804746, Final residual = 7.71047e-05, No Iterations 18
time step continuity errors : sum local = 3.65682e-06, global = 2.23726e-09, cumulative = -1.8621e-08
smoothSolver:  Solving for omega, Initial residual = 1.95244e-05, Final residual = 5.44263e-07, No Iterations 2
smoothSolver:  Solving for k, Initial residual = 8.14014e-05, Final residual = 6.15379e-06, No Iterations 2
ExecutionTime = 8.89 s  ClockTime = 9 s

forceCoeffs forceCoeffs output:
    Cm    = 0.00629048
    Cd    = 0.00946063
    Cl    = 0.287854
    Cl(f) = 0.150218
    Cl(r) = 0.137637

Time = 92

smoothSolver:  Solving for Ux, Initial residual = 0.00730836, Final residual = 0.000337398, No Iterations 1
smoothSolver:  Solving for Uz, Initial residual = 0.0072013, Final residual = 0.000367664, No Iterations 1
GAMG:  Solving for p, Initial residual = 0.00773779, Final residual = 7.17352e-05, No Iterations 18
time step continuity errors : sum local = 3.40173e-06, global = 1.89418e-09, cumulative = -1.67268e-08
smoothSolver:  Solving for omega, Initial residual = 1.90952e-05, Final residual = 5.20314e-07, No Iterations 2
smoothSolver:  Solving for k, Initial residual = 7.97361e-05, Final residual = 5.9588e-06, No Iterations 2
ExecutionTime = 8.97 s  ClockTime = 9 s

forceCoeffs forceCoeffs output:
    Cm    = 0.00640478
    Cd    = 0.00940645
    Cl    = 0.288242
    Cl(f) = 0.150526
    Cl(r) = 0.137716

Time = 93

smoothSolver:  Solving for Ux, Initial residual = 0.00712317, Final residual = 0.000334627, No Iterations 1
smoothSolver:  Solving for Uz, Initial residual = 0.0069107, Final residual = 0.00035379, No Iterations 1
GAMG:  Solving for p, Initial residual = 0.00743814, Final residual = 7.40481e-05, No Iterations 20
time step continuity errors : sum local = 3.51136e-06, global = 3.65863e-10, cumulative = -1.63609e-08
smoothSolver:  Solving for omega, Initial residual = 1.86679e-05, Final residual = 4.98147e-07, No Iterations 2
smoothSolver:  Solving for k, Initial residual = 7.81755e-05, Final residual = 5.75224e-06, No Iterations 2
ExecutionTime = 9.05 s  ClockTime = 9 s

forceCoeffs forceCoeffs output:
    Cm    = 0.00650192
    Cd    = 0.0093599
    Cl    = 0.288616
    Cl(f) = 0.15081
    Cl(r) = 0.137806

Time = 94

smoothSolver:  Solving for Ux, Initial residual = 0.0069371, Final residual = 0.00033139, No Iterations 1
smoothSolver:  Solving for Uz, Initial residual = 0.00664076, Final residual = 0.000339864, No Iterations 1
GAMG:  Solving for p, Initial residual = 0.00719091, Final residual = 6.89233e-05, No Iterations 22
time step continuity errors : sum local = 3.2686e-06, global = -2.18532e-09, cumulative = -1.85462e-08
smoothSolver:  Solving for omega, Initial residual = 1.82343e-05, Final residual = 4.75765e-07, No Iterations 2
smoothSolver:  Solving for k, Initial residual = 7.6553e-05, Final residual = 5.53034e-06, No Iterations 2
ExecutionTime = 9.14 s  ClockTime = 9 s

forceCoeffs forceCoeffs output:
    Cm    = 0.00657771
    Cd    = 0.00931979
    Cl    = 0.288988
    Cl(f) = 0.151072
    Cl(r) = 0.137916

[...]
GAMG:  Solving for p, Initial residual = 6.90044e-06, Final residual = 9.03101e-08, No Iterations 15
time step continuity errors : sum local = 4.26822e-09, global = -2.42554e-12, cumulative = -2.08942e-08
smoothSolver:  Solving for omega, Initial residual = 8.25594e-08, Final residual = 9.15716e-09, No Iterations 1
smoothSolver:  Solving for k, Initial residual = 2.50241e-07, Final residual = 1.14137e-08, No Iterations 2
ExecutionTime = 31.36 s  ClockTime = 31 s

forceCoeffs forceCoeffs output:
    Cm    = 0.003412
    Cd    = 0.00883505
    Cl    = 0.317572
    Cl(f) = 0.162198
    Cl(r) = 0.155374

Time = 375

smoothSolver:  Solving for Ux, Initial residual = 1.60447e-05, Final residual = 1.29815e-06, No Iterations 1
smoothSolver:  Solving for Uz, Initial residual = 6.90329e-06, Final residual = 5.4285e-07, No Iterations 1
GAMG:  Solving for p, Initial residual = 6.82234e-06, Final residual = 9.84836e-08, No Iterations 14
time step continuity errors : sum local = 4.65453e-09, global = -3.25354e-12, cumulative = -2.08974e-08
smoothSolver:  Solving for omega, Initial residual = 8.14807e-08, Final residual = 9.10109e-09, No Iterations 1
smoothSolver:  Solving for k, Initial residual = 2.48965e-07, Final residual = 1.14674e-08, No Iterations 2
ExecutionTime = 31.43 s  ClockTime = 31 s

forceCoeffs forceCoeffs output:
    Cm    = 0.003412
    Cd    = 0.00883482
    Cl    = 0.317577
    Cl(f) = 0.162201
    Cl(r) = 0.155377

Time = 376

smoothSolver:  Solving for Ux, Initial residual = 1.5659e-05, Final residual = 1.28465e-06, No Iterations 1
smoothSolver:  Solving for Uz, Initial residual = 6.7759e-06, Final residual = 5.31734e-07, No Iterations 1
GAMG:  Solving for p, Initial residual = 6.76488e-06, Final residual = 9.8356e-08, No Iterations 14
time step continuity errors : sum local = 4.64852e-09, global = -3.25221e-12, cumulative = -2.09007e-08
smoothSolver:  Solving for omega, Initial residual = 8.03794e-08, Final residual = 9.03843e-09, No Iterations 1
smoothSolver:  Solving for k, Initial residual = 2.4753e-07, Final residual = 1.15019e-08, No Iterations 2
ExecutionTime = 31.49 s  ClockTime = 31 s

forceCoeffs forceCoeffs output:
    Cm    = 0.003412
    Cd    = 0.0088346
    Cl    = 0.317582
    Cl(f) = 0.162203
    Cl(r) = 0.155379

Time = 377

smoothSolver:  Solving for Ux, Initial residual = 1.52835e-05, Final residual = 1.2708e-06, No Iterations 1
smoothSolver:  Solving for Uz, Initial residual = 6.65675e-06, Final residual = 5.21475e-07, No Iterations 1
GAMG:  Solving for p, Initial residual = 6.71349e-06, Final residual = 9.83071e-08, No Iterations 14
time step continuity errors : sum local = 4.64622e-09, global = -3.25247e-12, cumulative = -2.0904e-08
smoothSolver:  Solving for omega, Initial residual = 7.92484e-08, Final residual = 8.96887e-09, No Iterations 1
smoothSolver:  Solving for k, Initial residual = 2.45937e-07, Final residual = 1.15185e-08, No Iterations 2
ExecutionTime = 31.56 s  ClockTime = 31 s

forceCoeffs forceCoeffs output:
    Cm    = 0.00341199
    Cd    = 0.00883438
    Cl    = 0.317587
    Cl(f) = 0.162206
    Cl(r) = 0.155382

Time = 378

smoothSolver:  Solving for Ux, Initial residual = 1.49191e-05, Final residual = 1.2566e-06, No Iterations 1
smoothSolver:  Solving for Uz, Initial residual = 6.54522e-06, Final residual = 5.12139e-07, No Iterations 1
GAMG:  Solving for p, Initial residual = 6.66926e-06, Final residual = 9.78682e-08, No Iterations 14
time step continuity errors : sum local = 4.6255e-09, global = -3.23706e-12, cumulative = -2.09072e-08
smoothSolver:  Solving for omega, Initial residual = 7.8083e-08, Final residual = 8.89301e-09, No Iterations 1
smoothSolver:  Solving for k, Initial residual = 2.44195e-07, Final residual = 1.15179e-08, No Iterations 2
ExecutionTime = 31.63 s  ClockTime = 31 s

forceCoeffs forceCoeffs output:
    Cm    = 0.00341197
    Cd    = 0.00883417
    Cl    = 0.317592
    Cl(f) = 0.162208
    Cl(r) = 0.155384

Time = 379

smoothSolver:  Solving for Ux, Initial residual = 1.45647e-05, Final residual = 1.24209e-06, No Iterations 1
smoothSolver:  Solving for Uz, Initial residual = 6.44072e-06, Final residual = 5.03614e-07, No Iterations 1
GAMG:  Solving for p, Initial residual = 6.6407e-06, Final residual = 9.69286e-08, No Iterations 14
time step continuity errors : sum local = 4.58111e-09, global = -3.20089e-12, cumulative = -2.09104e-08
smoothSolver:  Solving for omega, Initial residual = 7.6886e-08, Final residual = 8.81088e-09, No Iterations 1
smoothSolver:  Solving for k, Initial residual = 2.4231e-07, Final residual = 1.14987e-08, No Iterations 2
ExecutionTime = 31.69 s  ClockTime = 31 s

forceCoeffs forceCoeffs output:
    Cm    = 0.00341194
    Cd    = 0.00883397
    Cl    = 0.317597
    Cl(f) = 0.16221
    Cl(r) = 0.155387

Time = 380

smoothSolver:  Solving for Ux, Initial residual = 1.42211e-05, Final residual = 1.22728e-06, No Iterations 1
smoothSolver:  Solving for Uz, Initial residual = 6.34315e-06, Final residual = 4.95844e-07, No Iterations 1
GAMG:  Solving for p, Initial residual = 6.603e-06, Final residual = 9.56213e-08, No Iterations 14
time step continuity errors : sum local = 4.51933e-09, global = -3.15557e-12, cumulative = -2.09135e-08
smoothSolver:  Solving for omega, Initial residual = 7.56594e-08, Final residual = 8.72265e-09, No Iterations 1
smoothSolver:  Solving for k, Initial residual = 2.40274e-07, Final residual = 1.14618e-08, No Iterations 2
ExecutionTime = 31.76 s  ClockTime = 31 s

forceCoeffs forceCoeffs output:
    Cm    = 0.00341191
    Cd    = 0.00883377
    Cl    = 0.317602
    Cl(f) = 0.162213
    Cl(r) = 0.155389

Time = 381

smoothSolver:  Solving for Ux, Initial residual = 1.38884e-05, Final residual = 1.21218e-06, No Iterations 1
smoothSolver:  Solving for Uz, Initial residual = 6.25192e-06, Final residual = 4.88783e-07, No Iterations 1
GAMG:  Solving for p, Initial residual = 6.54536e-06, Final residual = 9.41348e-08, No Iterations 14
time step continuity errors : sum local = 4.44909e-09, global = -3.11717e-12, cumulative = -2.09167e-08
smoothSolver:  Solving for omega, Initial residual = 7.44089e-08, Final residual = 8.62832e-09, No Iterations 1
smoothSolver:  Solving for k, Initial residual = 2.38077e-07, Final residual = 1.14076e-08, No Iterations 2
ExecutionTime = 31.84 s  ClockTime = 32 s

forceCoeffs forceCoeffs output:
    Cm    = 0.00341187
    Cd    = 0.00883358
    Cl    = 0.317606
    Cl(f) = 0.162215
    Cl(r) = 0.155391

Time = 382

smoothSolver:  Solving for Ux, Initial residual = 1.35662e-05, Final residual = 1.19682e-06, No Iterations 1
smoothSolver:  Solving for Uz, Initial residual = 6.16688e-06, Final residual = 4.82377e-07, No Iterations 1
GAMG:  Solving for p, Initial residual = 6.47743e-06, Final residual = 9.26289e-08, No Iterations 14
time step continuity errors : sum local = 4.37793e-09, global = -3.08266e-12, cumulative = -2.09197e-08
smoothSolver:  Solving for omega, Initial residual = 7.31391e-08, Final residual = 8.52841e-09, No Iterations 1
smoothSolver:  Solving for k, Initial residual = 2.35731e-07, Final residual = 1.13373e-08, No Iterations 2
ExecutionTime = 31.9 s  ClockTime = 32 s

forceCoeffs forceCoeffs output:
    Cm    = 0.00341182
    Cd    = 0.00883339
    Cl    = 0.317611
    Cl(f) = 0.162217
    Cl(r) = 0.155394

Time = 383

smoothSolver:  Solving for Ux, Initial residual = 1.32549e-05, Final residual = 1.18119e-06, No Iterations 1
smoothSolver:  Solving for Uz, Initial residual = 6.08733e-06, Final residual = 4.76613e-07, No Iterations 1
GAMG:  Solving for p, Initial residual = 6.39082e-06, Final residual = 9.11431e-08, No Iterations 14
time step continuity errors : sum local = 4.30772e-09, global = -3.04234e-12, cumulative = -2.09228e-08
smoothSolver:  Solving for omega, Initial residual = 7.18539e-08, Final residual = 8.42334e-09, No Iterations 1
smoothSolver:  Solving for k, Initial residual = 2.33258e-07, Final residual = 1.12514e-08, No Iterations 2
ExecutionTime = 31.97 s  ClockTime = 32 s

forceCoeffs forceCoeffs output:
    Cm    = 0.00341176
    Cd    = 0.00883321
    Cl    = 0.317615
    Cl(f) = 0.162219
    Cl(r) = 0.155396

Time = 384

smoothSolver:  Solving for Ux, Initial residual = 1.29543e-05, Final residual = 1.16536e-06, No Iterations 1
smoothSolver:  Solving for Uz, Initial residual = 6.01304e-06, Final residual = 4.71448e-07, No Iterations 1
GAMG:  Solving for p, Initial residual = 6.31389e-06, Final residual = 9.94993e-08, No Iterations 13
time step continuity errors : sum local = 4.70267e-09, global = -4.01678e-12, cumulative = -2.09268e-08
smoothSolver:  Solving for omega, Initial residual = 7.05521e-08, Final residual = 8.31394e-09, No Iterations 1
smoothSolver:  Solving for k, Initial residual = 2.30667e-07, Final residual = 1.11522e-08, No Iterations 2
ExecutionTime = 32.04 s  ClockTime = 32 s

forceCoeffs forceCoeffs output:
    Cm    = 0.00341169
    Cd    = 0.00883303
    Cl    = 0.31762
    Cl(f) = 0.162221
    Cl(r) = 0.155398

Time = 385

smoothSolver:  Solving for Ux, Initial residual = 1.26638e-05, Final residual = 1.14929e-06, No Iterations 1
smoothSolver:  Solving for Uz, Initial residual = 5.94407e-06, Final residual = 4.66817e-07, No Iterations 1
GAMG:  Solving for p, Initial residual = 6.28449e-06, Final residual = 9.96856e-08, No Iterations 13
time step continuity errors : sum local = 4.71149e-09, global = -3.96694e-12, cumulative = -2.09308e-08
smoothSolver:  Solving for omega, Initial residual = 6.92461e-08, Final residual = 8.20044e-09, No Iterations 1
smoothSolver:  Solving for k, Initial residual = 2.27946e-07, Final residual = 1.10396e-08, No Iterations 2
ExecutionTime = 32.1 s  ClockTime = 32 s

forceCoeffs forceCoeffs output:
    Cm    = 0.00341162
    Cd    = 0.00883286
    Cl    = 0.317624
    Cl(f) = 0.162224
    Cl(r) = 0.1554

Time = 386

smoothSolver:  Solving for Ux, Initial residual = 1.23836e-05, Final residual = 1.13301e-06, No Iterations 1
smoothSolver:  Solving for Uz, Initial residual = 5.87967e-06, Final residual = 4.62698e-07, No Iterations 1
GAMG:  Solving for p, Initial residual = 6.25311e-06, Final residual = 9.95055e-08, No Iterations 13
time step continuity errors : sum local = 4.70299e-09, global = -3.89718e-12, cumulative = -2.09347e-08
smoothSolver:  Solving for omega, Initial residual = 6.79328e-08, Final residual = 8.08296e-09, No Iterations 1
smoothSolver:  Solving for k, Initial residual = 2.25121e-07, Final residual = 1.09141e-08, No Iterations 2
ExecutionTime = 32.16 s  ClockTime = 32 s

forceCoeffs forceCoeffs output:
    Cm    = 0.00341154
    Cd    = 0.00883269
    Cl    = 0.317628
    Cl(f) = 0.162226
    Cl(r) = 0.155402

Time = 387

smoothSolver:  Solving for Ux, Initial residual = 1.2114e-05, Final residual = 1.11654e-06, No Iterations 1
smoothSolver:  Solving for Uz, Initial residual = 5.82016e-06, Final residual = 4.59075e-07, No Iterations 1
GAMG:  Solving for p, Initial residual = 6.19505e-06, Final residual = 9.82422e-08, No Iterations 13
time step continuity errors : sum local = 4.64329e-09, global = -3.79291e-12, cumulative = -2.09385e-08
smoothSolver:  Solving for omega, Initial residual = 6.66194e-08, Final residual = 7.96197e-09, No Iterations 1
smoothSolver:  Solving for k, Initial residual = 2.22206e-07, Final residual = 1.078e-08, No Iterations 2
ExecutionTime = 32.23 s  ClockTime = 32 s

forceCoeffs forceCoeffs output:
    Cm    = 0.00341145
    Cd    = 0.00883253
    Cl    = 0.317632
    Cl(f) = 0.162227
    Cl(r) = 0.155405

Time = 388

smoothSolver:  Solving for Ux, Initial residual = 1.18533e-05, Final residual = 1.09992e-06, No Iterations 1
smoothSolver:  Solving for Uz, Initial residual = 5.7655e-06, Final residual = 4.55877e-07, No Iterations 1
GAMG:  Solving for p, Initial residual = 6.13942e-06, Final residual = 9.63206e-08, No Iterations 13
time step continuity errors : sum local = 4.55248e-09, global = -3.67801e-12, cumulative = -2.09421e-08
smoothSolver:  Solving for omega, Initial residual = 6.53067e-08, Final residual = 7.84048e-09, No Iterations 1
smoothSolver:  Solving for k, Initial residual = 2.19238e-07, Final residual = 1.06396e-08, No Iterations 2
ExecutionTime = 32.29 s  ClockTime = 32 s

forceCoeffs forceCoeffs output:
    Cm    = 0.00341135
    Cd    = 0.00883238
    Cl    = 0.317636
    Cl(f) = 0.162229
    Cl(r) = 0.155407

Time = 389

smoothSolver:  Solving for Ux, Initial residual = 1.16024e-05, Final residual = 1.08319e-06, No Iterations 1
smoothSolver:  Solving for Uz, Initial residual = 5.71515e-06, Final residual = 4.53083e-07, No Iterations 1
GAMG:  Solving for p, Initial residual = 6.08945e-06, Final residual = 9.42167e-08, No Iterations 13
time step continuity errors : sum local = 4.45305e-09, global = -3.58042e-12, cumulative = -2.09457e-08
smoothSolver:  Solving for omega, Initial residual = 6.40043e-08, Final residual = 7.72112e-09, No Iterations 1
smoothSolver:  Solving for k, Initial residual = 2.16216e-07, Final residual = 1.04946e-08, No Iterations 2
ExecutionTime = 32.36 s  ClockTime = 32 s

forceCoeffs forceCoeffs output:
    Cm    = 0.00341125
    Cd    = 0.00883223
    Cl    = 0.31764
    Cl(f) = 0.162231
    Cl(r) = 0.155409

Time = 390

smoothSolver:  Solving for Ux, Initial residual = 1.13607e-05, Final residual = 1.06633e-06, No Iterations 1
smoothSolver:  Solving for Uz, Initial residual = 5.66886e-06, Final residual = 4.50682e-07, No Iterations 1
GAMG:  Solving for p, Initial residual = 6.02388e-06, Final residual = 9.21663e-08, No Iterations 13
time step continuity errors : sum local = 4.35615e-09, global = -3.49646e-12, cumulative = -2.09492e-08
smoothSolver:  Solving for omega, Initial residual = 6.27178e-08, Final residual = 7.60144e-09, No Iterations 1
smoothSolver:  Solving for k, Initial residual = 2.13161e-07, Final residual = 1.03427e-08, No Iterations 2
ExecutionTime = 32.42 s  ClockTime = 32 s

forceCoeffs forceCoeffs output:
    Cm    = 0.00341114
    Cd    = 0.00883208
    Cl    = 0.317644
    Cl(f) = 0.162233
    Cl(r) = 0.155411

Time = 391

smoothSolver:  Solving for Ux, Initial residual = 1.11271e-05, Final residual = 1.04935e-06, No Iterations 1
smoothSolver:  Solving for Uz, Initial residual = 5.62635e-06, Final residual = 4.48637e-07, No Iterations 1
GAMG:  Solving for p, Initial residual = 5.9547e-06, Final residual = 9.01905e-08, No Iterations 13
time step continuity errors : sum local = 4.26278e-09, global = -3.41585e-12, cumulative = -2.09526e-08
smoothSolver:  Solving for omega, Initial residual = 6.14424e-08, Final residual = 7.48101e-09, No Iterations 1
smoothSolver:  Solving for k, Initial residual = 2.10084e-07, Final residual = 1.01871e-08, No Iterations 2
ExecutionTime = 32.49 s  ClockTime = 32 s

forceCoeffs forceCoeffs output:
    Cm    = 0.00341102
    Cd    = 0.00883194
    Cl    = 0.317648
    Cl(f) = 0.162235
    Cl(r) = 0.155413

Time = 392

smoothSolver:  Solving for Ux, Initial residual = 1.09025e-05, Final residual = 1.03226e-06, No Iterations 1
smoothSolver:  Solving for Uz, Initial residual = 5.58776e-06, Final residual = 4.46924e-07, No Iterations 1
GAMG:  Solving for p, Initial residual = 5.94095e-06, Final residual = 9.82515e-08, No Iterations 12
time step continuity errors : sum local = 4.64378e-09, global = -4.70837e-12, cumulative = -2.09573e-08
smoothSolver:  Solving for omega, Initial residual = 6.01766e-08, Final residual = 7.36032e-09, No Iterations 1
smoothSolver:  Solving for k, Initial residual = 2.06968e-07, Final residual = 1.00401e-08, No Iterations 2
ExecutionTime = 32.55 s  ClockTime = 32 s

forceCoeffs forceCoeffs output:
    Cm    = 0.00341089
    Cd    = 0.00883181
    Cl    = 0.317651
    Cl(f) = 0.162237
    Cl(r) = 0.155415

Time = 393

smoothSolver:  Solving for Ux, Initial residual = 1.06852e-05, Final residual = 1.01512e-06, No Iterations 1
smoothSolver:  Solving for Uz, Initial residual = 5.5526e-06, Final residual = 4.45517e-07, No Iterations 1
GAMG:  Solving for p, Initial residual = 5.8963e-06, Final residual = 9.81535e-08, No Iterations 12
time step continuity errors : sum local = 4.63916e-09, global = -4.63835e-12, cumulative = -2.0962e-08
smoothSolver:  Solving for omega, Initial residual = 5.8924e-08, Final residual = 7.23835e-09, No Iterations 1
smoothSolver:  Solving for k, Initial residual = 2.03858e-07, Final residual = 9.89574e-09, No Iterations 2
ExecutionTime = 32.63 s  ClockTime = 32 s

forceCoeffs forceCoeffs output:
    Cm    = 0.00341076
    Cd    = 0.00883168
    Cl    = 0.317655
    Cl(f) = 0.162238
    Cl(r) = 0.155417

Time = 394

smoothSolver:  Solving for Ux, Initial residual = 1.04746e-05, Final residual = 9.9793e-07, No Iterations 1
smoothSolver:  Solving for Uz, Initial residual = 5.52088e-06, Final residual = 4.44376e-07, No Iterations 1
GAMG:  Solving for p, Initial residual = 5.86229e-06, Final residual = 9.76805e-08, No Iterations 12
time step continuity errors : sum local = 4.61681e-09, global = -4.53516e-12, cumulative = -2.09665e-08
smoothSolver:  Solving for omega, Initial residual = 5.76858e-08, Final residual = 7.11778e-09, No Iterations 1
smoothSolver:  Solving for k, Initial residual = 2.00714e-07, Final residual = 9.75696e-09, No Iterations 2
ExecutionTime = 32.69 s  ClockTime = 32 s

forceCoeffs forceCoeffs output:
    Cm    = 0.00341063
    Cd    = 0.00883155
    Cl    = 0.317659
    Cl(f) = 0.16224
    Cl(r) = 0.155419

Time = 395

smoothSolver:  Solving for Ux, Initial residual = 1.02715e-05, Final residual = 9.80701e-07, No Iterations 1
smoothSolver:  Solving for Uz, Initial residual = 5.49309e-06, Final residual = 4.43524e-07, No Iterations 1
GAMG:  Solving for p, Initial residual = 5.87607e-06, Final residual = 9.66471e-08, No Iterations 12
time step continuity errors : sum local = 4.56798e-09, global = -4.38389e-12, cumulative = -2.09709e-08
smoothSolver:  Solving for omega, Initial residual = 5.64641e-08, Final residual = 6.99959e-09, No Iterations 1
smoothSolver:  Solving for k, Initial residual = 1.97543e-07, Final residual = 9.62444e-09, No Iterations 2
ExecutionTime = 32.75 s  ClockTime = 32 s

forceCoeffs forceCoeffs output:
    Cm    = 0.00341049
    Cd    = 0.00883143
    Cl    = 0.317662
    Cl(f) = 0.162242
    Cl(r) = 0.155421

Time = 396

smoothSolver:  Solving for Ux, Initial residual = 1.00739e-05, Final residual = 9.63473e-07, No Iterations 1
smoothSolver:  Solving for Uz, Initial residual = 5.46749e-06, Final residual = 4.4289e-07, No Iterations 1
GAMG:  Solving for p, Initial residual = 5.8766e-06, Final residual = 9.50232e-08, No Iterations 12
time step continuity errors : sum local = 4.49123e-09, global = -4.21164e-12, cumulative = -2.09751e-08
smoothSolver:  Solving for omega, Initial residual = 5.52647e-08, Final residual = 6.8824e-09, No Iterations 1
smoothSolver:  Solving for k, Initial residual = 1.9437e-07, Final residual = 9.49453e-09, No Iterations 2
ExecutionTime = 32.81 s  ClockTime = 33 s

forceCoeffs forceCoeffs output:
    Cm    = 0.00341034
    Cd    = 0.00883131
    Cl    = 0.317666
    Cl(f) = 0.162243
    Cl(r) = 0.155423

Time = 397

smoothSolver:  Solving for Ux, Initial residual = 9.88249e-06, Final residual = 9.46258e-07, No Iterations 1
smoothSolver:  Solving for Uz, Initial residual = 5.4452e-06, Final residual = 4.42499e-07, No Iterations 1
GAMG:  Solving for p, Initial residual = 5.84456e-06, Final residual = 9.30706e-08, No Iterations 12
time step continuity errors : sum local = 4.39895e-09, global = -4.05742e-12, cumulative = -2.09792e-08
smoothSolver:  Solving for omega, Initial residual = 5.40827e-08, Final residual = 6.77035e-09, No Iterations 1
smoothSolver:  Solving for k, Initial residual = 1.91169e-07, Final residual = 9.37296e-09, No Iterations 2
ExecutionTime = 32.88 s  ClockTime = 33 s


SIMPLE solution converged in 397 iterations

forceCoeffs forceCoeffs output:
    Cm    = 0.00341018
    Cd    = 0.00883119
    Cl    = 0.317669
    Cl(f) = 0.162245
    Cl(r) = 0.155424

End

Finalising parallel run
